
     RDKit          3D

  0  0  0  0  0  0  0  0  0  0999 V3000
M  V30 BEGIN CTAB
M  V30 COUNTS 352 396 0 0 0
M  V30 BEGIN ATOM
M  V30 1 C -0.9993 -2.2414 6.3050 0
M  V30 2 C 0.0859 -1.9794 5.4764 0
M  V30 3 C 0.2145 -2.5273 4.1880 0
M  V30 4 C -2.0331 -3.0120 5.7091 0
M  V30 5 C -1.9189 -3.6135 4.4709 0
M  V30 6 C -0.8319 -3.3095 3.6329 0
M  V30 7 C -0.6783 -3.9388 2.3880 0
M  V30 8 C 0.6367 -4.1096 1.8825 0
M  V30 9 C 0.9529 -4.8902 0.8004 0
M  V30 10 C 2.2809 -4.8731 0.3058 0
M  V30 11 C 2.7876 -3.6010 -0.1400 0
M  V30 12 C 4.1806 -3.3780 -0.3387 0
M  V30 13 C 5.1259 -4.3329 0.0405 0
M  V30 14 C 4.6634 -5.5679 0.5623 0
M  V30 15 C 3.2460 -5.9032 0.5694 0
M  V30 16 C -0.1321 -5.3774 0.0201 0
M  V30 17 C -1.5001 -5.0153 0.2916 0
M  V30 18 C -2.5577 -5.3287 -0.6327 0
M  V30 19 C -2.3036 -5.6738 -2.0111 0
M  V30 20 C -3.3446 -5.8295 -2.9333 0
M  V30 21 C -4.6427 -5.4769 -2.5589 0
M  V30 22 C -4.9134 -5.4852 -1.1726 0
M  V30 23 C -3.9098 -5.2908 -0.2359 0
M  V30 24 C -1.7538 -4.3614 1.5549 0
M  V30 25 H 0.7802 -1.2140 5.7959 0
M  V30 26 H 1.0299 -2.1621 3.5671 0
M  V30 27 H -2.9513 -3.3276 6.2271 0
M  V30 28 H -2.7475 -4.2228 4.1339 0
M  V30 29 H 1.4959 -3.8023 2.4460 0
M  V30 30 H 2.1077 -2.7544 -0.2698 0
M  V30 31 H 4.4933 -2.3802 -0.6103 0
M  V30 32 H 5.3943 -6.3082 0.8465 0
M  V30 33 H 2.9289 -6.8864 0.9176 0
M  V30 34 H 0.0900 -6.0131 -0.8262 0
M  V30 35 H -1.3005 -5.6469 -2.4024 0
M  V30 36 H -3.0760 -6.0067 -3.9772 0
M  V30 37 H -5.9106 -5.6451 -0.7899 0
M  V30 38 H -4.2062 -5.2540 0.7956 0
M  V30 39 H -2.7756 -4.1468 1.8685 0
M  V30 40 C -1.3637 1.7737 6.8717 0
M  V30 41 C -2.2909 0.8218 6.3827 0
M  V30 42 C -2.5951 0.7814 4.9915 0
M  V30 43 C -1.0567 2.8842 6.0120 0
M  V30 44 C -1.3920 2.8538 4.6531 0
M  V30 45 C -2.0593 1.7631 4.1066 0
M  V30 46 C -2.1970 1.6236 2.6442 0
M  V30 47 C -2.7808 0.4522 2.0779 0
M  V30 48 C -3.2062 0.3785 0.7249 0
M  V30 49 C -4.1068 -0.6894 0.2858 0
M  V30 50 C -4.5712 -1.8037 1.0339 0
M  V30 51 C -5.5777 -2.7047 0.5887 0
M  V30 52 C -6.1843 -2.5009 -0.6496 0
M  V30 53 C -5.8724 -1.3157 -1.3401 0
M  V30 54 C -4.7652 -0.5279 -0.9392 0
M  V30 55 C -2.6141 1.3573 -0.0978 0
M  V30 56 C -2.1644 2.6216 0.4246 0
M  V30 57 C -1.8964 3.7907 -0.4082 0
M  V30 58 C -2.3835 3.8452 -1.7309 0
M  V30 59 C -2.2883 5.0176 -2.4430 0
M  V30 60 C -1.6999 6.1891 -1.8634 0
M  V30 61 C -1.2196 6.1696 -0.5966 0
M  V30 62 C -1.2545 4.9536 0.0880 0
M  V30 63 C -2.1047 2.7548 1.7826 0
M  V30 64 H -2.6386 0.0462 6.9878 0
M  V30 65 H -3.2568 -0.0326 4.6746 0
M  V30 66 H -0.3112 3.6002 6.3303 0
M  V30 67 H -0.7929 3.4741 4.0176 0
M  V30 68 H -2.8587 -0.4516 2.6571 0
M  V30 69 H -4.2299 -1.9298 2.0459 0
M  V30 70 H -5.7310 -3.5531 1.2704 0
M  V30 71 H -6.4191 -0.9965 -2.2469 0
M  V30 72 H -4.4891 0.2796 -1.6103 0
M  V30 73 H -2.4836 1.1764 -1.1220 0
M  V30 74 H -2.8627 2.9729 -2.1425 0
M  V30 75 H -2.6338 5.0441 -3.4653 0
M  V30 76 H -0.8336 7.0657 -0.1249 0
M  V30 77 H -0.6381 4.8791 0.9510 0
M  V30 78 H -1.9404 3.7248 2.2100 0
M  V30 79 C 2.7875 0.4827 6.5529 0
M  V30 80 C 4.1115 0.3698 6.0743 0
M  V30 81 C 4.4452 0.9912 4.8990 0
M  V30 82 C 1.9600 1.3860 5.9174 0
M  V30 83 C 2.3157 2.0739 4.7704 0
M  V30 84 C 3.5700 1.8725 4.1985 0
M  V30 85 C 3.8533 2.3034 2.8971 0
M  V30 86 C 3.5705 3.6222 2.6154 0
M  V30 87 C 3.8918 4.2190 1.3560 0
M  V30 88 C 3.2920 5.4841 0.9192 0
M  V30 89 C 2.3705 6.2754 1.7410 0
M  V30 90 C 1.6753 7.3778 1.1812 0
M  V30 91 C 1.8095 7.6275 -0.2211 0
M  V30 92 C 2.8225 6.9750 -0.9492 0
M  V30 93 C 3.5480 5.9745 -0.3650 0
M  V30 94 C 4.7002 3.4038 0.4668 0
M  V30 95 C 5.1321 2.0938 0.7740 0
M  V30 96 C 5.8311 1.2940 -0.1647 0
M  V30 97 C 5.6367 1.2878 -1.6286 0
M  V30 98 C 6.0935 0.1813 -2.3701 0
M  V30 99 C 6.8291 -0.8747 -1.7900 0
M  V30 100 C 7.1345 -0.7231 -0.4502 0
M  V30 101 C 6.6132 0.3044 0.3427 0
M  V30 102 C 4.6348 1.5372 2.0002 0
M  V30 103 H 4.8628 -0.3220 6.4481 0
M  V30 104 H 5.4142 0.7833 4.4631 0
M  V30 105 H 0.9716 1.3952 6.3041 0
M  V30 106 H 1.5245 2.5623 4.1782 0
M  V30 107 H 3.0989 4.2456 3.3475 0
M  V30 108 H 2.2423 6.0622 2.7727 0
M  V30 109 H 0.9906 7.9262 1.8250 0
M  V30 110 H 2.9863 7.2323 -1.9801 0
M  V30 111 H 4.3055 5.5388 -0.9996 0
M  V30 112 H 5.0494 3.7097 -0.5269 0
M  V30 113 H 4.9166 1.8953 -2.1807 0
M  V30 114 H 5.8679 0.1968 -3.4049 0
M  V30 115 H 7.8082 -1.4237 0.0195 0
M  V30 116 H 6.8140 0.2376 1.3914 0
M  V30 117 H 4.7302 0.4476 2.1795 0
M  V30 118 C -5.4034 -1.8485 -4.4782 0
M  V30 119 C -4.3523 -2.7485 -4.7774 0
M  V30 120 C -3.0786 -2.2345 -5.0721 0
M  V30 121 C -5.1575 -0.4529 -4.6952 0
M  V30 122 C -3.8529 -0.0421 -4.9981 0
M  V30 123 C -2.7287 -0.9023 -5.0146 0
M  V30 124 C -1.3540 -0.4987 -4.8875 0
M  V30 125 C -0.2681 -1.4600 -4.6162 0
M  V30 126 C 1.0477 -0.9871 -4.5186 0
M  V30 127 C 2.1531 -1.9003 -4.2735 0
M  V30 128 C 2.0248 -3.1269 -3.5771 0
M  V30 129 C 3.1434 -3.9051 -3.2124 0
M  V30 130 C 4.4757 -3.5330 -3.5072 0
M  V30 131 C 4.6127 -2.3167 -4.2222 0
M  V30 132 C 3.4857 -1.5404 -4.6677 0
M  V30 133 C 1.2612 0.4076 -4.5263 0
M  V30 134 C 0.2114 1.3783 -4.6354 0
M  V30 135 C 0.4456 2.7956 -4.4113 0
M  V30 136 C 1.4169 3.1427 -3.4615 0
M  V30 137 C 1.7443 4.4771 -3.2714 0
M  V30 138 C 0.9245 5.4902 -3.8698 0
M  V30 139 C 0.0801 5.2218 -4.8970 0
M  V30 140 C -0.1992 3.8792 -5.1465 0
M  V30 141 C -1.0313 0.8992 -5.0228 0
M  V30 142 H -4.4563 -3.7873 -5.0773 0
M  V30 143 H -2.3830 -2.9244 -5.5439 0
M  V30 144 H -5.9494 0.3333 -4.6280 0
M  V30 145 H -3.7699 1.0206 -4.9641 0
M  V30 146 H -0.5279 -2.5192 -4.5307 0
M  V30 147 H 1.0594 -3.5211 -3.2368 0
M  V30 148 H 2.9936 -4.7523 -2.5846 0
M  V30 149 H 5.5646 -1.9965 -4.6191 0
M  V30 150 H 3.6110 -0.6674 -5.2736 0
M  V30 151 H 2.2580 0.7586 -4.3749 0
M  V30 152 H 1.8830 2.3971 -2.8251 0
M  V30 153 H 2.4780 4.7529 -2.5093 0
M  V30 154 H -0.3487 6.0394 -5.4466 0
M  V30 155 H -0.9254 3.6220 -5.9041 0
M  V30 156 H -1.7300 1.5855 -5.3299 0
M  V30 157 Zn 0.3884 -0.3231 8.8263 0 CHG=2
M  V30 158 N -1.0181 -1.7876 7.6220 0
M  V30 159 C -2.0544 -2.0483 8.4898 0
M  V30 160 C -2.2897 -1.3869 9.6977 0
M  V30 161 C -3.4803 -1.7665 10.3796 0
M  V30 162 C -3.7978 -1.1580 11.5816 0
M  V30 163 C -2.8584 -0.3343 12.1666 0
M  V30 164 C -1.6467 -0.0076 11.5221 0
M  V30 165 C -0.7339 0.8857 12.1766 0
M  V30 166 N -1.3656 -0.5240 10.2716 0
M  V30 167 H -2.8487 -2.7715 8.1978 0
M  V30 168 H -4.1916 -2.4935 9.9594 0
M  V30 169 H -4.7434 -1.4599 12.0389 0
M  V30 170 H -3.1252 0.1599 13.0969 0
M  V30 171 H -0.7802 1.8270 11.6695 0
M  V30 172 H -1.0775 1.1495 13.2298 0
M  V30 173 H 0.2966 0.4696 12.2478 0
M  V30 174 N 2.2682 -0.4492 7.3758 0
M  V30 175 C 2.7914 -1.7046 7.5030 0
M  V30 176 C 2.4039 -2.5800 8.5769 0
M  V30 177 C 2.9292 -3.8625 8.6516 0
M  V30 178 C 2.7006 -4.6701 9.7578 0
M  V30 179 C 1.9217 -4.2236 10.7815 0
M  V30 180 C 1.2296 -2.9947 10.6225 0
M  V30 181 C 0.4005 -2.5274 11.7752 0
M  V30 182 N 1.4608 -2.2066 9.5181 0
M  V30 183 H 3.5284 -2.1262 6.8330 0
M  V30 184 H 3.5795 -4.2628 7.8840 0
M  V30 185 H 3.2750 -5.6015 9.8539 0
M  V30 186 H 1.7842 -4.8391 11.6435 0
M  V30 187 H -0.7204 -2.5530 11.5395 0
M  V30 188 H 0.4720 -3.2433 12.6094 0
M  V30 189 H 0.8126 -1.5926 12.1814 0
M  V30 190 N -0.6012 1.5672 8.0187 0
M  V30 191 C -0.1132 2.6181 8.7952 0
M  V30 192 C 0.9449 2.4240 9.7639 0
M  V30 193 C 1.5610 3.5811 10.2680 0
M  V30 194 C 2.7268 3.4788 10.9936 0
M  V30 195 C 3.3986 2.3229 11.0778 0
M  V30 196 C 2.7931 1.1341 10.6208 0
M  V30 197 C 3.5536 -0.1319 10.8942 0
M  V30 198 N 1.5318 1.2232 10.0282 0
M  V30 199 H -0.5080 3.6585 8.6700 0
M  V30 200 H 1.1675 4.5869 10.1570 0
M  V30 201 H 3.0804 4.3724 11.5075 0
M  V30 202 H 4.3392 2.3782 11.5670 0
M  V30 203 H 3.7062 -0.5627 9.8705 0
M  V30 204 H 4.5210 0.1132 11.3413 0
M  V30 205 H 2.9797 -0.8697 11.4899 0
M  V30 206 Zn -7.5522 -4.1435 -3.2083 0 CHG=2
M  V30 207 N -5.6838 -5.3136 -3.4188 0
M  V30 208 C -5.7606 -5.9721 -4.6281 0
M  V30 209 C -6.7250 -5.6527 -5.6117 0
M  V30 210 C -6.5934 -6.1893 -6.9094 0
M  V30 211 C -7.4116 -5.7099 -7.9080 0
M  V30 212 C -8.5502 -4.9708 -7.5609 0
M  V30 213 C -8.8072 -4.6912 -6.2014 0
M  V30 214 C -10.1322 -4.2230 -5.7614 0
M  V30 215 N -7.8541 -4.9845 -5.2632 0
M  V30 216 H -4.8778 -6.5106 -4.9457 0
M  V30 217 H -5.8397 -6.9401 -7.1617 0
M  V30 218 H -7.2973 -5.9315 -8.9713 0
M  V30 219 H -9.2381 -4.6578 -8.3276 0
M  V30 220 H -10.0415 -3.1340 -5.5474 0
M  V30 221 H -10.8720 -4.3350 -6.5829 0
M  V30 222 H -10.4629 -4.7546 -4.8578 0
M  V30 223 N -7.0865 -3.4129 -1.1706 0
M  V30 224 C -7.8490 -4.1807 -0.3455 0
M  V30 225 C -8.3676 -5.4257 -0.7648 0
M  V30 226 C -8.8131 -6.2450 0.2365 0
M  V30 227 C -9.3157 -7.4525 -0.1285 0
M  V30 228 C -9.3064 -7.8715 -1.4161 0
M  V30 229 C -8.8373 -7.0336 -2.4207 0
M  V30 230 C -9.1300 -7.4136 -3.8257 0
M  V30 231 N -8.3427 -5.8131 -2.0518 0
M  V30 232 H -7.9840 -3.9280 0.7224 0
M  V30 233 H -8.9057 -5.9423 1.2838 0
M  V30 234 H -9.7870 -8.0050 0.6385 0
M  V30 235 H -9.8369 -8.7673 -1.6614 0
M  V30 236 H -8.2582 -7.5348 -4.4922 0
M  V30 237 H -9.7205 -8.3549 -3.9017 0
M  V30 238 H -9.7799 -6.6302 -4.2986 0
M  V30 239 N -6.6801 -2.3403 -4.2491 0
M  V30 240 C -7.8069 -1.5750 -4.4291 0
M  V30 241 C -9.0635 -1.7135 -3.7727 0
M  V30 242 C -10.0584 -0.7018 -3.9353 0
M  V30 243 C -11.3496 -0.9130 -3.4066 0
M  V30 244 C -11.6525 -2.0574 -2.6835 0
M  V30 245 C -10.6637 -3.0077 -2.5103 0
M  V30 246 C -11.0668 -4.2450 -1.8543 0
M  V30 247 N -9.4272 -2.8616 -3.0968 0
M  V30 248 H -7.7632 -0.7587 -5.1151 0
M  V30 249 H -9.8094 0.2278 -4.4310 0
M  V30 250 H -12.1220 -0.1780 -3.6005 0
M  V30 251 H -12.6160 -2.1998 -2.2362 0
M  V30 252 H -10.7423 -4.1969 -0.8092 0
M  V30 253 H -12.2155 -4.3217 -1.8505 0
M  V30 254 H -10.7109 -5.1698 -2.2975 0
M  V30 255 Zn 7.3900 -4.0850 -2.1343 0 CHG=2
M  V30 256 N 6.4486 -4.0172 -0.2101 0
M  V30 257 C 7.3826 -3.8994 0.7186 0
M  V30 258 C 8.7051 -3.6295 0.4294 0
M  V30 259 C 9.5195 -3.3205 1.4953 0
M  V30 260 C 10.8936 -3.2298 1.2811 0
M  V30 261 C 11.4321 -3.2498 0.0065 0
M  V30 262 C 10.5518 -3.5155 -1.0852 0
M  V30 263 C 11.1349 -3.8105 -2.4684 0
M  V30 264 N 9.2196 -3.7434 -0.8536 0
M  V30 265 H 7.1065 -4.0477 1.7564 0
M  V30 266 H 9.1826 -3.2379 2.5035 0
M  V30 267 H 11.5307 -3.0738 2.1215 0
M  V30 268 H 12.5174 -3.1787 -0.0504 0
M  V30 269 H 10.7711 -3.0024 -3.1462 0
M  V30 270 H 12.2581 -3.8485 -2.5174 0
M  V30 271 H 10.7980 -4.7891 -2.7874 0
M  V30 272 N 5.5126 -4.4136 -3.2249 0
M  V30 273 C 5.3635 -5.7793 -3.2156 0
M  V30 274 C 6.0290 -6.6656 -2.3647 0
M  V30 275 C 5.4945 -7.9460 -2.1102 0
M  V30 276 C 6.1725 -8.8135 -1.2010 0
M  V30 277 C 7.4828 -8.5181 -0.8238 0
M  V30 278 C 8.0196 -7.2296 -1.0999 0
M  V30 279 C 9.4385 -6.9230 -0.7048 0
M  V30 280 N 7.2640 -6.3034 -1.8156 0
M  V30 281 H 4.4949 -6.2190 -3.6708 0
M  V30 282 H 4.5489 -8.2315 -2.5347 0
M  V30 283 H 5.7367 -9.7233 -0.8860 0
M  V30 284 H 8.1063 -9.1924 -0.2215 0
M  V30 285 H 10.0922 -7.8442 -0.6415 0
M  V30 286 H 9.9460 -6.2843 -1.4613 0
M  V30 287 H 9.3919 -6.4294 0.3093 0
M  V30 288 N 7.2620 -1.9270 -2.5474 0
M  V30 289 C 7.8565 -1.7139 -3.7636 0
M  V30 290 C 8.3721 -2.7222 -4.5898 0
M  V30 291 C 8.9637 -2.3750 -5.8050 0
M  V30 292 C 9.6142 -3.3595 -6.5364 0
M  V30 293 C 9.4853 -4.7313 -6.1369 0
M  V30 294 C 8.8627 -5.0410 -4.8960 0
M  V30 295 C 8.9766 -6.5004 -4.5081 0
M  V30 296 N 8.3466 -4.0400 -4.1619 0
M  V30 297 H 8.0087 -0.6591 -4.0400 0
M  V30 298 H 9.0420 -1.3361 -6.1073 0
M  V30 299 H 10.2071 -3.1455 -7.4185 0
M  V30 300 H 9.9446 -5.5327 -6.7243 0
M  V30 301 H 7.9440 -6.8822 -4.2528 0
M  V30 302 H 9.3863 -7.0650 -5.3536 0
M  V30 303 H 9.5878 -6.4965 -3.6185 0
M  V30 304 Zn 0.2259 8.4914 -3.0161 0 CHG=2
M  V30 305 N -1.5392 7.3245 -2.6166 0
M  V30 306 C -2.4305 7.5951 -3.5620 0
M  V30 307 C -1.9884 8.1070 -4.7521 0
M  V30 308 C -2.9687 8.0614 -5.7945 0
M  V30 309 C -2.6343 8.3948 -7.0540 0
M  V30 310 C -1.3220 8.8178 -7.3400 0
M  V30 311 C -0.3781 8.8878 -6.3119 0
M  V30 312 C 0.8724 9.5927 -6.5228 0
M  V30 313 N -0.7135 8.5481 -5.0083 0
M  V30 314 H -3.4307 7.2160 -3.4941 0
M  V30 315 H -3.9936 7.8491 -5.6140 0
M  V30 316 H -3.4534 8.3251 -7.7803 0
M  V30 317 H -1.1522 9.0978 -8.3643 0
M  V30 318 H 1.7358 8.9614 -6.4066 0
M  V30 319 H 0.9028 9.9801 -7.5827 0
M  V30 320 H 0.9560 10.3858 -5.8005 0
M  V30 321 N 0.9780 8.5032 -0.8543 0
M  V30 322 C 0.3669 9.5232 -0.2245 0
M  V30 323 C -0.6432 10.3472 -0.8406 0
M  V30 324 C -1.3022 11.3078 -0.0893 0
M  V30 325 C -2.1357 12.1962 -0.7577 0
M  V30 326 C -2.4289 12.1022 -2.1242 0
M  V30 327 C -1.6993 11.1632 -2.8708 0
M  V30 328 C -1.8336 11.1991 -4.3686 0
M  V30 329 N -0.8112 10.3238 -2.2239 0
M  V30 330 H 0.7269 9.8254 0.7549 0
M  V30 331 H -1.1991 11.3568 1.0131 0
M  V30 332 H -2.5448 13.0254 -0.2106 0
M  V30 333 H -3.1080 12.7888 -2.5864 0
M  V30 334 H -2.6643 10.5298 -4.7176 0
M  V30 335 H -2.1547 12.2341 -4.7498 0
M  V30 336 H -0.8863 11.0103 -4.8258 0
M  V30 337 N 1.3184 6.7725 -3.7053 0
M  V30 338 C 2.3533 7.2138 -4.4522 0
M  V30 339 C 2.8632 8.5324 -4.3109 0
M  V30 340 C 4.0388 8.8556 -5.0334 0
M  V30 341 C 4.4771 10.1734 -4.9845 0
M  V30 342 C 3.9146 11.0767 -4.0638 0
M  V30 343 C 2.7027 10.7355 -3.4334 0
M  V30 344 C 1.9810 11.7149 -2.5057 0
M  V30 345 N 2.2015 9.4952 -3.6538 0
M  V30 346 H 2.9202 6.5252 -5.0747 0
M  V30 347 H 4.6398 8.1738 -5.6345 0
M  V30 348 H 5.3420 10.4440 -5.5882 0
M  V30 349 H 4.4243 12.0290 -4.0152 0
M  V30 350 H 1.7230 11.1718 -1.5887 0
M  V30 351 H 2.6491 12.5251 -2.1298 0
M  V30 352 H 1.0982 12.1667 -3.0204 0
M  V30 END ATOM
M  V30 BEGIN BOND
M  V30 1 2 1 2
M  V30 2 1 2 3
M  V30 3 1 1 4
M  V30 4 2 4 5
M  V30 5 1 5 6
M  V30 6 1 6 7
M  V30 7 2 7 8
M  V30 8 1 8 9
M  V30 9 1 9 10
M  V30 10 2 10 11
M  V30 11 1 11 12
M  V30 12 2 12 13
M  V30 13 1 13 14
M  V30 14 2 14 15
M  V30 15 2 9 16
M  V30 16 1 16 17
M  V30 17 1 17 18
M  V30 18 2 18 19
M  V30 19 1 19 20
M  V30 20 2 20 21
M  V30 21 1 21 22
M  V30 22 2 22 23
M  V30 23 2 17 24
M  V30 24 2 6 3
M  V30 25 1 24 7
M  V30 26 1 15 10
M  V30 27 1 23 18
M  V30 28 1 2 25
M  V30 29 1 3 26
M  V30 30 1 4 27
M  V30 31 1 5 28
M  V30 32 1 8 29
M  V30 33 1 11 30
M  V30 34 1 12 31
M  V30 35 1 14 32
M  V30 36 1 15 33
M  V30 37 1 16 34
M  V30 38 1 19 35
M  V30 39 1 20 36
M  V30 40 1 22 37
M  V30 41 1 23 38
M  V30 42 1 24 39
M  V30 43 2 40 41
M  V30 44 1 41 42
M  V30 45 1 40 43
M  V30 46 2 43 44
M  V30 47 1 44 45
M  V30 48 1 45 46
M  V30 49 2 46 47
M  V30 50 1 47 48
M  V30 51 1 48 49
M  V30 52 2 49 50
M  V30 53 1 50 51
M  V30 54 2 51 52
M  V30 55 1 52 53
M  V30 56 2 53 54
M  V30 57 2 48 55
M  V30 58 1 55 56
M  V30 59 1 56 57
M  V30 60 2 57 58
M  V30 61 1 58 59
M  V30 62 2 59 60
M  V30 63 1 60 61
M  V30 64 2 61 62
M  V30 65 2 56 63
M  V30 66 2 45 42
M  V30 67 1 63 46
M  V30 68 1 54 49
M  V30 69 1 62 57
M  V30 70 1 41 64
M  V30 71 1 42 65
M  V30 72 1 43 66
M  V30 73 1 44 67
M  V30 74 1 47 68
M  V30 75 1 50 69
M  V30 76 1 51 70
M  V30 77 1 53 71
M  V30 78 1 54 72
M  V30 79 1 55 73
M  V30 80 1 58 74
M  V30 81 1 59 75
M  V30 82 1 61 76
M  V30 83 1 62 77
M  V30 84 1 63 78
M  V30 85 2 79 80
M  V30 86 1 80 81
M  V30 87 1 79 82
M  V30 88 2 82 83
M  V30 89 1 83 84
M  V30 90 1 84 85
M  V30 91 2 85 86
M  V30 92 1 86 87
M  V30 93 1 87 88
M  V30 94 2 88 89
M  V30 95 1 89 90
M  V30 96 2 90 91
M  V30 97 1 91 92
M  V30 98 2 92 93
M  V30 99 2 87 94
M  V30 100 1 94 95
M  V30 101 1 95 96
M  V30 102 2 96 97
M  V30 103 1 97 98
M  V30 104 2 98 99
M  V30 105 1 99 100
M  V30 106 2 100 101
M  V30 107 2 95 102
M  V30 108 2 84 81
M  V30 109 1 102 85
M  V30 110 1 93 88
M  V30 111 1 101 96
M  V30 112 1 80 103
M  V30 113 1 81 104
M  V30 114 1 82 105
M  V30 115 1 83 106
M  V30 116 1 86 107
M  V30 117 1 89 108
M  V30 118 1 90 109
M  V30 119 1 92 110
M  V30 120 1 93 111
M  V30 121 1 94 112
M  V30 122 1 97 113
M  V30 123 1 98 114
M  V30 124 1 100 115
M  V30 125 1 101 116
M  V30 126 1 102 117
M  V30 127 2 118 119
M  V30 128 1 119 120
M  V30 129 1 118 121
M  V30 130 2 121 122
M  V30 131 1 122 123
M  V30 132 1 123 124
M  V30 133 2 124 125
M  V30 134 1 125 126
M  V30 135 1 126 127
M  V30 136 2 127 128
M  V30 137 1 128 129
M  V30 138 2 129 130
M  V30 139 1 130 131
M  V30 140 2 131 132
M  V30 141 2 126 133
M  V30 142 1 133 134
M  V30 143 1 134 135
M  V30 144 2 135 136
M  V30 145 1 136 137
M  V30 146 2 137 138
M  V30 147 1 138 139
M  V30 148 2 139 140
M  V30 149 2 134 141
M  V30 150 2 123 120
M  V30 151 1 141 124
M  V30 152 1 132 127
M  V30 153 1 140 135
M  V30 154 1 119 142
M  V30 155 1 120 143
M  V30 156 1 121 144
M  V30 157 1 122 145
M  V30 158 1 125 146
M  V30 159 1 128 147
M  V30 160 1 129 148
M  V30 161 1 131 149
M  V30 162 1 132 150
M  V30 163 1 133 151
M  V30 164 1 136 152
M  V30 165 1 137 153
M  V30 166 1 139 154
M  V30 167 1 140 155
M  V30 168 1 141 156
M  V30 169 2 158 159
M  V30 170 1 159 160
M  V30 171 2 160 161
M  V30 172 1 161 162
M  V30 173 2 162 163
M  V30 174 1 163 164
M  V30 175 1 164 165
M  V30 176 2 164 166
M  V30 177 1 166 160
M  V30 178 1 159 167
M  V30 179 1 161 168
M  V30 180 1 162 169
M  V30 181 1 163 170
M  V30 182 1 165 171
M  V30 183 1 165 172
M  V30 184 1 165 173
M  V30 185 2 174 175
M  V30 186 1 175 176
M  V30 187 2 176 177
M  V30 188 1 177 178
M  V30 189 2 178 179
M  V30 190 1 179 180
M  V30 191 1 180 181
M  V30 192 2 180 182
M  V30 193 1 182 176
M  V30 194 1 175 183
M  V30 195 1 177 184
M  V30 196 1 178 185
M  V30 197 1 179 186
M  V30 198 1 181 187
M  V30 199 1 181 188
M  V30 200 1 181 189
M  V30 201 2 190 191
M  V30 202 1 191 192
M  V30 203 2 192 193
M  V30 204 1 193 194
M  V30 205 2 194 195
M  V30 206 1 195 196
M  V30 207 1 196 197
M  V30 208 2 196 198
M  V30 209 1 198 192
M  V30 210 1 191 199
M  V30 211 1 193 200
M  V30 212 1 194 201
M  V30 213 1 195 202
M  V30 214 1 197 203
M  V30 215 1 197 204
M  V30 216 1 197 205
M  V30 217 9 158 157
M  V30 218 9 166 157
M  V30 219 9 190 157
M  V30 220 9 198 157
M  V30 221 9 174 157
M  V30 222 9 182 157
M  V30 223 2 207 208
M  V30 224 1 208 209
M  V30 225 2 209 210
M  V30 226 1 210 211
M  V30 227 2 211 212
M  V30 228 1 212 213
M  V30 229 1 213 214
M  V30 230 2 213 215
M  V30 231 1 215 209
M  V30 232 1 208 216
M  V30 233 1 210 217
M  V30 234 1 211 218
M  V30 235 1 212 219
M  V30 236 1 214 220
M  V30 237 1 214 221
M  V30 238 1 214 222
M  V30 239 2 223 224
M  V30 240 1 224 225
M  V30 241 2 225 226
M  V30 242 1 226 227
M  V30 243 2 227 228
M  V30 244 1 228 229
M  V30 245 1 229 230
M  V30 246 2 229 231
M  V30 247 1 231 225
M  V30 248 1 224 232
M  V30 249 1 226 233
M  V30 250 1 227 234
M  V30 251 1 228 235
M  V30 252 1 230 236
M  V30 253 1 230 237
M  V30 254 1 230 238
M  V30 255 2 239 240
M  V30 256 1 240 241
M  V30 257 2 241 242
M  V30 258 1 242 243
M  V30 259 2 243 244
M  V30 260 1 244 245
M  V30 261 1 245 246
M  V30 262 2 245 247
M  V30 263 1 247 241
M  V30 264 1 240 248
M  V30 265 1 242 249
M  V30 266 1 243 250
M  V30 267 1 244 251
M  V30 268 1 246 252
M  V30 269 1 246 253
M  V30 270 1 246 254
M  V30 271 9 207 206
M  V30 272 9 215 206
M  V30 273 9 239 206
M  V30 274 9 247 206
M  V30 275 9 223 206
M  V30 276 9 231 206
M  V30 277 2 256 257
M  V30 278 1 257 258
M  V30 279 2 258 259
M  V30 280 1 259 260
M  V30 281 2 260 261
M  V30 282 1 261 262
M  V30 283 1 262 263
M  V30 284 2 262 264
M  V30 285 1 264 258
M  V30 286 1 257 265
M  V30 287 1 259 266
M  V30 288 1 260 267
M  V30 289 1 261 268
M  V30 290 1 263 269
M  V30 291 1 263 270
M  V30 292 1 263 271
M  V30 293 2 272 273
M  V30 294 1 273 274
M  V30 295 2 274 275
M  V30 296 1 275 276
M  V30 297 2 276 277
M  V30 298 1 277 278
M  V30 299 1 278 279
M  V30 300 2 278 280
M  V30 301 1 280 274
M  V30 302 1 273 281
M  V30 303 1 275 282
M  V30 304 1 276 283
M  V30 305 1 277 284
M  V30 306 1 279 285
M  V30 307 1 279 286
M  V30 308 1 279 287
M  V30 309 2 288 289
M  V30 310 1 289 290
M  V30 311 2 290 291
M  V30 312 1 291 292
M  V30 313 2 292 293
M  V30 314 1 293 294
M  V30 315 1 294 295
M  V30 316 2 294 296
M  V30 317 1 296 290
M  V30 318 1 289 297
M  V30 319 1 291 298
M  V30 320 1 292 299
M  V30 321 1 293 300
M  V30 322 1 295 301
M  V30 323 1 295 302
M  V30 324 1 295 303
M  V30 325 9 256 255
M  V30 326 9 264 255
M  V30 327 9 288 255
M  V30 328 9 296 255
M  V30 329 9 272 255
M  V30 330 9 280 255
M  V30 331 2 305 306
M  V30 332 1 306 307
M  V30 333 2 307 308
M  V30 334 1 308 309
M  V30 335 2 309 310
M  V30 336 1 310 311
M  V30 337 1 311 312
M  V30 338 2 311 313
M  V30 339 1 313 307
M  V30 340 1 306 314
M  V30 341 1 308 315
M  V30 342 1 309 316
M  V30 343 1 310 317
M  V30 344 1 312 318
M  V30 345 1 312 319
M  V30 346 1 312 320
M  V30 347 2 321 322
M  V30 348 1 322 323
M  V30 349 2 323 324
M  V30 350 1 324 325
M  V30 351 2 325 326
M  V30 352 1 326 327
M  V30 353 1 327 328
M  V30 354 2 327 329
M  V30 355 1 329 323
M  V30 356 1 322 330
M  V30 357 1 324 331
M  V30 358 1 325 332
M  V30 359 1 326 333
M  V30 360 1 328 334
M  V30 361 1 328 335
M  V30 362 1 328 336
M  V30 363 2 337 338
M  V30 364 1 338 339
M  V30 365 2 339 340
M  V30 366 1 340 341
M  V30 367 2 341 342
M  V30 368 1 342 343
M  V30 369 1 343 344
M  V30 370 2 343 345
M  V30 371 1 345 339
M  V30 372 1 338 346
M  V30 373 1 340 347
M  V30 374 1 341 348
M  V30 375 1 342 349
M  V30 376 1 344 350
M  V30 377 1 344 351
M  V30 378 1 344 352
M  V30 379 9 305 304
M  V30 380 9 313 304
M  V30 381 9 337 304
M  V30 382 9 345 304
M  V30 383 9 321 304
M  V30 384 9 329 304
M  V30 385 1 1 158
M  V30 386 1 40 190
M  V30 387 1 79 174
M  V30 388 1 21 207
M  V30 389 1 52 223
M  V30 390 1 118 239
M  V30 391 1 13 256
M  V30 392 1 99 288
M  V30 393 1 130 272
M  V30 394 1 60 305
M  V30 395 1 91 321
M  V30 396 1 138 337
M  V30 END BOND
M  V30 END CTAB
M  END

$$$$
