
     RDKit          3D

  0  0  0  0  0  0  0  0  0  0999 V3000
M  V30 BEGIN CTAB
M  V30 COUNTS 232 264 0 0 0
M  V30 BEGIN ATOM
M  V30 1 C -0.6330 -2.8538 1.8461 0
M  V30 2 C 0.6946 -2.9238 1.4388 0
M  V30 3 C 1.0278 -3.4137 0.1717 0
M  V30 4 C 0.0080 -3.8385 -0.6759 0
M  V30 5 C -1.3299 -3.7467 -0.2890 0
M  V30 6 C -1.6455 -3.2574 0.9728 0
M  V30 7 H 1.4472 -2.6029 2.1381 0
M  V30 8 H 0.2754 -4.2481 -1.6354 0
M  V30 9 H -2.6818 -3.2096 1.2646 0
M  V30 10 C -1.8967 0.8358 1.7647 0
M  V30 11 C -2.7210 -0.2489 1.4732 0
M  V30 12 C -3.3439 -0.3593 0.2288 0
M  V30 13 C -3.1680 0.6491 -0.7101 0
M  V30 14 C -2.3404 1.7433 -0.4418 0
M  V30 15 C -1.7123 1.8276 0.7960 0
M  V30 16 H -2.8888 -0.9925 2.2340 0
M  V30 17 H -3.7049 0.5721 -1.6392 0
M  V30 18 H -1.1002 2.6919 0.9848 0
M  V30 19 C 1.8366 0.2987 1.6925 0
M  V30 20 C 1.3388 1.5306 1.2917 0
M  V30 21 C 1.5033 1.9714 -0.0229 0
M  V30 22 C 2.1907 1.1769 -0.9327 0
M  V30 23 C 2.7260 -0.0505 -0.5349 0
M  V30 24 C 2.5639 -0.4687 0.7812 0
M  V30 25 H 0.8472 2.1550 2.0189 0
M  V30 26 H 2.3362 1.5399 -1.9367 0
M  V30 27 H 3.0385 -1.3799 1.1036 0
M  V30 28 C -1.9092 -1.1578 -3.1765 0
M  V30 29 C -0.9121 -2.1267 -3.2242 0
M  V30 30 C 0.4327 -1.7644 -3.3175 0
M  V30 31 C 0.7799 -0.4187 -3.3706 0
M  V30 32 C -0.2091 0.5667 -3.3342 0
M  V30 33 C -1.5444 0.1898 -3.2550 0
M  V30 34 H -1.2011 -3.1639 -3.2059 0
M  V30 35 H 1.8195 -0.1520 -3.4675 0
M  V30 36 H -2.2866 0.9683 -3.2798 0
M  V30 37 Zn -0.2600 -0.6405 4.3584 0 CHG=2
M  V30 38 N -0.9583 -2.3728 3.1210 0
M  V30 39 C -1.8377 -3.0172 3.7943 0
M  V30 40 C -2.4253 -2.5415 5.0207 0
M  V30 41 C -3.2935 -3.3814 5.7170 0
M  V30 42 C -3.8919 -2.9167 6.8836 0
M  V30 43 C -3.6646 -1.6049 7.2377 0
M  V30 44 C -2.8138 -0.7904 6.4627 0
M  V30 45 C -2.7145 0.6412 6.8417 0
M  V30 46 N -2.1520 -1.2732 5.4119 0
M  V30 47 H -2.2129 -3.9801 3.4430 0
M  V30 48 H -3.4775 -4.3848 5.3664 0
M  V30 49 H -4.5310 -3.5537 7.4756 0
M  V30 50 H -4.1393 -1.1819 8.1102 0
M  V30 51 H -2.3461 1.2489 6.0240 0
M  V30 52 H -3.6972 1.0042 7.1393 0
M  V30 53 H -2.0692 0.7648 7.7105 0
M  V30 54 N 1.6300 -0.1862 2.9935 0
M  V30 55 C 2.6627 -0.4573 3.6951 0
M  V30 56 C 2.6353 -1.1939 4.9344 0
M  V30 57 C 3.8393 -1.3784 5.6112 0
M  V30 58 C 3.8738 -2.2091 6.7264 0
M  V30 59 C 2.7077 -2.8555 7.0722 0
M  V30 60 C 1.5199 -2.6137 6.3553 0
M  V30 61 C 0.3098 -3.3526 6.7930 0
M  V30 62 N 1.4731 -1.7666 5.3266 0
M  V30 63 H 3.6611 -0.1878 3.3429 0
M  V30 64 H 4.7339 -0.8796 5.2719 0
M  V30 65 H 4.7848 -2.3574 7.2859 0
M  V30 66 H 2.6851 -3.5462 7.9014 0
M  V30 67 H 0.5022 -4.4245 6.7448 0
M  V30 68 H 0.0889 -3.1346 7.8378 0
M  V30 69 H -0.5495 -3.1179 6.1791 0
M  V30 70 N -1.2542 0.8926 3.0084 0
M  V30 71 C -1.0593 2.0357 3.5510 0
M  V30 72 C -0.3388 2.2471 4.7839 0
M  V30 73 C -0.1433 3.5563 5.2191 0
M  V30 74 C 0.4984 3.7827 6.4321 0
M  V30 75 C 0.8450 2.6838 7.1872 0
M  V30 76 C 0.5802 1.3852 6.7125 0
M  V30 77 C 0.8347 0.2472 7.6304 0
M  V30 78 N 0.0588 1.1754 5.5053 0
M  V30 79 H -1.4767 2.9448 3.1128 0
M  V30 80 H -0.4990 4.3850 4.6267 0
M  V30 81 H 0.6802 4.7843 6.7905 0
M  V30 82 H 1.2948 2.8061 8.1610 0
M  V30 83 H 0.2702 -0.6300 7.3318 0
M  V30 84 H 1.8978 0.0099 7.6653 0
M  V30 85 H 0.5557 0.5275 8.6455 0
M  V30 86 Zn -4.2599 -3.1634 -1.7937 0 CHG=2
M  V30 87 N -2.3478 -4.1365 -1.1679 0
M  V30 88 C -2.2242 -5.2554 -1.7782 0
M  V30 89 C -3.0972 -5.6937 -2.8376 0
M  V30 90 C -2.9472 -6.9868 -3.3360 0
M  V30 91 C -3.7729 -7.4112 -4.3722 0
M  V30 92 C -4.6393 -6.4884 -4.9154 0
M  V30 93 C -4.7085 -5.1785 -4.3979 0
M  V30 94 C -5.5826 -4.2131 -5.1100 0
M  V30 95 N -3.9966 -4.8093 -3.3339 0
M  V30 96 H -1.4154 -5.9429 -1.5249 0
M  V30 97 H -2.2172 -7.6543 -2.9056 0
M  V30 98 H -3.7192 -8.4201 -4.7518 0
M  V30 99 H -5.2731 -6.7544 -5.7480 0
M  V30 100 H -5.3114 -3.1876 -4.8895 0
M  V30 101 H -5.5047 -4.3785 -6.1834 0
M  V30 102 H -6.6276 -4.3796 -4.8515 0
M  V30 103 N -4.1346 -1.4835 -0.0619 0
M  V30 104 C -5.1008 -1.7408 0.7333 0
M  V30 105 C -5.8528 -2.9725 0.7383 0
M  V30 106 C -6.8979 -3.0930 1.6518 0
M  V30 107 C -7.5420 -4.3176 1.7937 0
M  V30 108 C -7.0672 -5.3752 1.0496 0
M  V30 109 C -6.0193 -5.1831 0.1293 0
M  V30 110 C -5.5679 -6.3726 -0.6348 0
M  V30 111 N -5.4468 -3.9926 -0.0532 0
M  V30 112 H -5.3737 -1.0369 1.5231 0
M  V30 113 H -7.2031 -2.2425 2.2413 0
M  V30 114 H -8.3695 -4.4387 2.4759 0
M  V30 115 H -7.4992 -6.3593 1.1509 0
M  V30 116 H -5.2082 -7.1337 0.0581 0
M  V30 117 H -6.4056 -6.8239 -1.1660 0
M  V30 118 H -4.7789 -6.1277 -1.3333 0
M  V30 119 N -3.2428 -1.5547 -3.0233 0
M  V30 120 C -4.1680 -0.8685 -3.5822 0
M  V30 121 C -5.5800 -1.1159 -3.4199 0
M  V30 122 C -6.4791 -0.2494 -4.0383 0
M  V30 123 C -7.8440 -0.4960 -3.9361 0
M  V30 124 C -8.2383 -1.6435 -3.2839 0
M  V30 125 C -7.2780 -2.5062 -2.7215 0
M  V30 126 C -7.7496 -3.8009 -2.1710 0
M  V30 127 N -5.9797 -2.2104 -2.7342 0
M  V30 128 H -3.9284 -0.0512 -4.2658 0
M  V30 129 H -6.1181 0.5956 -4.6038 0
M  V30 130 H -8.5680 0.1649 -4.3877 0
M  V30 131 H -9.2830 -1.9092 -3.2234 0
M  V30 132 H -8.1794 -3.6644 -1.1788 0
M  V30 133 H -8.5516 -4.1929 -2.7954 0
M  V30 134 H -6.9420 -4.5241 -2.1274 0
M  V30 135 Zn 3.3504 -3.0570 -2.2682 0 CHG=2
M  V30 136 N 2.3522 -3.4738 -0.2790 0
M  V30 137 C 3.2819 -3.7309 0.5632 0
M  V30 138 C 4.6906 -3.7407 0.2513 0
M  V30 139 C 5.5926 -3.9767 1.2870 0
M  V30 140 C 6.9528 -4.0420 1.0051 0
M  V30 141 C 7.3369 -3.9381 -0.3136 0
M  V30 142 C 6.3727 -3.7425 -1.3208 0
M  V30 143 C 6.8350 -3.7831 -2.7306 0
M  V30 144 N 5.0816 -3.5858 -1.0340 0
M  V30 145 H 3.0463 -4.0023 1.5943 0
M  V30 146 H 5.2365 -4.1201 2.2953 0
M  V30 147 H 7.6790 -4.2091 1.7857 0
M  V30 148 H 8.3755 -4.0342 -0.5924 0
M  V30 149 H 7.3128 -2.8433 -3.0066 0
M  V30 150 H 7.5976 -4.5529 -2.8436 0
M  V30 151 H 6.0143 -3.9899 -3.4085 0
M  V30 152 N 1.4210 -2.7568 -3.3520 0
M  V30 153 C 1.2492 -3.7479 -4.1443 0
M  V30 154 C 2.0784 -4.9273 -4.1525 0
M  V30 155 C 1.8618 -5.8896 -5.1369 0
M  V30 156 C 2.6374 -7.0442 -5.1361 0
M  V30 157 C 3.5244 -7.2154 -4.0958 0
M  V30 158 C 3.6632 -6.2245 -3.1031 0
M  V30 159 C 4.5537 -6.5324 -1.9561 0
M  V30 160 N 2.9988 -5.0704 -3.1704 0
M  V30 161 H 0.4242 -3.7533 -4.8597 0
M  V30 162 H 1.1174 -5.7293 -5.9011 0
M  V30 163 H 2.5309 -7.7899 -5.9091 0
M  V30 164 H 4.1203 -8.1130 -4.0246 0
M  V30 165 H 4.3346 -5.9073 -1.0989 0
M  V30 166 H 4.4324 -7.5773 -1.6747 0
M  V30 167 H 5.5992 -6.4135 -2.2383 0
M  V30 168 N 3.4268 -0.8342 -1.4664 0
M  V30 169 C 4.4149 -0.2893 -2.0657 0
M  V30 170 C 5.0773 -0.8509 -3.2188 0
M  V30 171 C 6.1800 -0.1772 -3.7419 0
M  V30 172 C 6.7402 -0.6190 -4.9346 0
M  V30 173 C 6.1209 -1.6690 -5.5816 0
M  V30 174 C 5.0105 -2.3047 -5.0010 0
M  V30 175 C 4.3584 -3.4102 -5.7543 0
M  V30 176 N 4.5301 -1.9347 -3.8114 0
M  V30 177 H 4.7776 0.6955 -1.7625 0
M  V30 178 H 6.5934 0.6738 -3.2233 0
M  V30 179 H 7.6118 -0.1402 -5.3543 0
M  V30 180 H 6.4885 -2.0137 -6.5360 0
M  V30 181 H 3.2768 -3.3201 -5.7043 0
M  V30 182 H 4.6652 -3.3873 -6.7967 0
M  V30 183 H 4.6481 -4.3816 -5.3552 0
M  V30 184 Zn -0.2757 3.8898 -2.1133 0 CHG=2
M  V30 185 N -2.1103 2.7312 -1.4089 0
M  V30 186 C -3.0773 3.0691 -2.1771 0
M  V30 187 C -2.9634 3.9605 -3.3052 0
M  V30 188 C -4.0998 4.1758 -4.0834 0
M  V30 189 C -4.0306 5.0422 -5.1685 0
M  V30 190 C -2.8400 5.7010 -5.3821 0
M  V30 191 C -1.7409 5.4780 -4.5306 0
M  V30 192 C -0.5378 6.3237 -4.7310 0
M  V30 193 N -1.7868 4.5826 -3.5451 0
M  V30 194 H -4.0881 2.6949 -2.0001 0
M  V30 195 H -5.0282 3.6852 -3.8352 0
M  V30 196 H -4.8880 5.2207 -5.7993 0
M  V30 197 H -2.7456 6.4165 -6.1850 0
M  V30 198 H 0.0847 5.9222 -5.5306 0
M  V30 199 H -0.8363 7.3212 -5.0497 0
M  V30 200 H 0.0446 6.3994 -3.8196 0
M  V30 201 N 0.9692 3.2098 -0.4023 0
M  V30 202 C 1.1828 4.2134 0.3642 0
M  V30 203 C 0.5373 5.4934 0.2220 0
M  V30 204 C 0.9353 6.5353 1.0582 0
M  V30 205 C 0.2999 7.7678 0.9529 0
M  V30 206 C -0.7596 7.8643 0.0774 0
M  V30 207 C -1.1433 6.7588 -0.7086 0
M  V30 208 C -2.3597 6.9137 -1.5458 0
M  V30 209 N -0.4626 5.6121 -0.6826 0
M  V30 210 H 1.8728 4.1324 1.2068 0
M  V30 211 H 1.7399 6.3916 1.7625 0
M  V30 212 H 0.6095 8.6104 1.5522 0
M  V30 213 H -1.3132 8.7868 -0.0132 0
M  V30 214 H -2.8134 5.9565 -1.7733 0
M  V30 215 H -3.0849 7.5333 -1.0210 0
M  V30 216 H -2.1243 7.4360 -2.4726 0
M  V30 217 N 0.1527 1.9229 -3.3826 0
M  V30 218 C 0.8763 2.3010 -4.3653 0
M  V30 219 C 1.5338 3.5831 -4.4495 0
M  V30 220 C 2.2470 3.8824 -5.6097 0
M  V30 221 C 3.0021 5.0477 -5.6590 0
M  V30 222 C 3.0631 5.8185 -4.5159 0
M  V30 223 C 2.3201 5.4612 -3.3782 0
M  V30 224 C 2.4433 6.3104 -2.1620 0
M  V30 225 N 1.5263 4.3872 -3.3642 0
M  V30 226 H 1.0895 1.6219 -5.1942 0
M  V30 227 H 2.2067 3.2180 -6.4588 0
M  V30 228 H 3.5430 5.3269 -6.5505 0
M  V30 229 H 3.6768 6.7058 -4.4900 0
M  V30 230 H 2.5919 5.6920 -1.2806 0
M  V30 231 H 3.2868 6.9886 -2.2591 0
M  V30 232 H 1.5524 6.9194 -2.0152 0
M  V30 END ATOM
M  V30 BEGIN BOND
M  V30 1 2 1 2
M  V30 2 1 2 3
M  V30 3 2 3 4
M  V30 4 1 4 5
M  V30 5 2 5 6
M  V30 6 1 6 1
M  V30 7 1 2 7
M  V30 8 1 4 8
M  V30 9 1 6 9
M  V30 10 2 10 11
M  V30 11 1 11 12
M  V30 12 2 12 13
M  V30 13 1 13 14
M  V30 14 2 14 15
M  V30 15 1 15 10
M  V30 16 1 11 16
M  V30 17 1 13 17
M  V30 18 1 15 18
M  V30 19 2 19 20
M  V30 20 1 20 21
M  V30 21 2 21 22
M  V30 22 1 22 23
M  V30 23 2 23 24
M  V30 24 1 24 19
M  V30 25 1 20 25
M  V30 26 1 22 26
M  V30 27 1 24 27
M  V30 28 2 28 29
M  V30 29 1 29 30
M  V30 30 2 30 31
M  V30 31 1 31 32
M  V30 32 2 32 33
M  V30 33 1 33 28
M  V30 34 1 29 34
M  V30 35 1 31 35
M  V30 36 1 33 36
M  V30 37 2 38 39
M  V30 38 1 39 40
M  V30 39 2 40 41
M  V30 40 1 41 42
M  V30 41 2 42 43
M  V30 42 1 43 44
M  V30 43 1 44 45
M  V30 44 2 44 46
M  V30 45 1 46 40
M  V30 46 1 39 47
M  V30 47 1 41 48
M  V30 48 1 42 49
M  V30 49 1 43 50
M  V30 50 1 45 51
M  V30 51 1 45 52
M  V30 52 1 45 53
M  V30 53 2 54 55
M  V30 54 1 55 56
M  V30 55 2 56 57
M  V30 56 1 57 58
M  V30 57 2 58 59
M  V30 58 1 59 60
M  V30 59 1 60 61
M  V30 60 2 60 62
M  V30 61 1 62 56
M  V30 62 1 55 63
M  V30 63 1 57 64
M  V30 64 1 58 65
M  V30 65 1 59 66
M  V30 66 1 61 67
M  V30 67 1 61 68
M  V30 68 1 61 69
M  V30 69 2 70 71
M  V30 70 1 71 72
M  V30 71 2 72 73
M  V30 72 1 73 74
M  V30 73 2 74 75
M  V30 74 1 75 76
M  V30 75 1 76 77
M  V30 76 2 76 78
M  V30 77 1 78 72
M  V30 78 1 71 79
M  V30 79 1 73 80
M  V30 80 1 74 81
M  V30 81 1 75 82
M  V30 82 1 77 83
M  V30 83 1 77 84
M  V30 84 1 77 85
M  V30 85 9 38 37
M  V30 86 9 46 37
M  V30 87 9 70 37
M  V30 88 9 78 37
M  V30 89 9 54 37
M  V30 90 9 62 37
M  V30 91 2 87 88
M  V30 92 1 88 89
M  V30 93 2 89 90
M  V30 94 1 90 91
M  V30 95 2 91 92
M  V30 96 1 92 93
M  V30 97 1 93 94
M  V30 98 2 93 95
M  V30 99 1 95 89
M  V30 100 1 88 96
M  V30 101 1 90 97
M  V30 102 1 91 98
M  V30 103 1 92 99
M  V30 104 1 94 100
M  V30 105 1 94 101
M  V30 106 1 94 102
M  V30 107 2 103 104
M  V30 108 1 104 105
M  V30 109 2 105 106
M  V30 110 1 106 107
M  V30 111 2 107 108
M  V30 112 1 108 109
M  V30 113 1 109 110
M  V30 114 2 109 111
M  V30 115 1 111 105
M  V30 116 1 104 112
M  V30 117 1 106 113
M  V30 118 1 107 114
M  V30 119 1 108 115
M  V30 120 1 110 116
M  V30 121 1 110 117
M  V30 122 1 110 118
M  V30 123 2 119 120
M  V30 124 1 120 121
M  V30 125 2 121 122
M  V30 126 1 122 123
M  V30 127 2 123 124
M  V30 128 1 124 125
M  V30 129 1 125 126
M  V30 130 2 125 127
M  V30 131 1 127 121
M  V30 132 1 120 128
M  V30 133 1 122 129
M  V30 134 1 123 130
M  V30 135 1 124 131
M  V30 136 1 126 132
M  V30 137 1 126 133
M  V30 138 1 126 134
M  V30 139 9 87 86
M  V30 140 9 95 86
M  V30 141 9 119 86
M  V30 142 9 127 86
M  V30 143 9 103 86
M  V30 144 9 111 86
M  V30 145 2 136 137
M  V30 146 1 137 138
M  V30 147 2 138 139
M  V30 148 1 139 140
M  V30 149 2 140 141
M  V30 150 1 141 142
M  V30 151 1 142 143
M  V30 152 2 142 144
M  V30 153 1 144 138
M  V30 154 1 137 145
M  V30 155 1 139 146
M  V30 156 1 140 147
M  V30 157 1 141 148
M  V30 158 1 143 149
M  V30 159 1 143 150
M  V30 160 1 143 151
M  V30 161 2 152 153
M  V30 162 1 153 154
M  V30 163 2 154 155
M  V30 164 1 155 156
M  V30 165 2 156 157
M  V30 166 1 157 158
M  V30 167 1 158 159
M  V30 168 2 158 160
M  V30 169 1 160 154
M  V30 170 1 153 161
M  V30 171 1 155 162
M  V30 172 1 156 163
M  V30 173 1 157 164
M  V30 174 1 159 165
M  V30 175 1 159 166
M  V30 176 1 159 167
M  V30 177 2 168 169
M  V30 178 1 169 170
M  V30 179 2 170 171
M  V30 180 1 171 172
M  V30 181 2 172 173
M  V30 182 1 173 174
M  V30 183 1 174 175
M  V30 184 2 174 176
M  V30 185 1 176 170
M  V30 186 1 169 177
M  V30 187 1 171 178
M  V30 188 1 172 179
M  V30 189 1 173 180
M  V30 190 1 175 181
M  V30 191 1 175 182
M  V30 192 1 175 183
M  V30 193 9 136 135
M  V30 194 9 144 135
M  V30 195 9 168 135
M  V30 196 9 176 135
M  V30 197 9 152 135
M  V30 198 9 160 135
M  V30 199 2 185 186
M  V30 200 1 186 187
M  V30 201 2 187 188
M  V30 202 1 188 189
M  V30 203 2 189 190
M  V30 204 1 190 191
M  V30 205 1 191 192
M  V30 206 2 191 193
M  V30 207 1 193 187
M  V30 208 1 186 194
M  V30 209 1 188 195
M  V30 210 1 189 196
M  V30 211 1 190 197
M  V30 212 1 192 198
M  V30 213 1 192 199
M  V30 214 1 192 200
M  V30 215 2 201 202
M  V30 216 1 202 203
M  V30 217 2 203 204
M  V30 218 1 204 205
M  V30 219 2 205 206
M  V30 220 1 206 207
M  V30 221 1 207 208
M  V30 222 2 207 209
M  V30 223 1 209 203
M  V30 224 1 202 210
M  V30 225 1 204 211
M  V30 226 1 205 212
M  V30 227 1 206 213
M  V30 228 1 208 214
M  V30 229 1 208 215
M  V30 230 1 208 216
M  V30 231 2 217 218
M  V30 232 1 218 219
M  V30 233 2 219 220
M  V30 234 1 220 221
M  V30 235 2 221 222
M  V30 236 1 222 223
M  V30 237 1 223 224
M  V30 238 2 223 225
M  V30 239 1 225 219
M  V30 240 1 218 226
M  V30 241 1 220 227
M  V30 242 1 221 228
M  V30 243 1 222 229
M  V30 244 1 224 230
M  V30 245 1 224 231
M  V30 246 1 224 232
M  V30 247 9 185 184
M  V30 248 9 193 184
M  V30 249 9 217 184
M  V30 250 9 225 184
M  V30 251 9 201 184
M  V30 252 9 209 184
M  V30 253 1 1 38
M  V30 254 1 10 70
M  V30 255 1 19 54
M  V30 256 1 5 87
M  V30 257 1 12 103
M  V30 258 1 28 119
M  V30 259 1 3 136
M  V30 260 1 23 168
M  V30 261 1 30 152
M  V30 262 1 14 185
M  V30 263 1 21 201
M  V30 264 1 32 217
M  V30 END BOND
M  V30 END CTAB
M  END

$$$$
