
     RDKit          3D

  0  0  0  0  0  0  0  0  0  0999 V3000
M  V30 BEGIN CTAB
M  V30 COUNTS 232 264 0 0 0
M  V30 BEGIN ATOM
M  V30 1 C -0.5625 -1.4451 2.9092 0
M  V30 2 C 0.7932 -1.5943 2.6317 0
M  V30 3 C 1.2133 -2.0493 1.3822 0
M  V30 4 C 0.2655 -2.3690 0.4143 0
M  V30 5 C -1.0953 -2.2233 0.6819 0
M  V30 6 C -1.5037 -1.7683 1.9322 0
M  V30 7 H 1.5093 -1.3704 3.4053 0
M  V30 8 H 0.6021 -2.7486 -0.5365 0
M  V30 9 H -2.5589 -1.6892 2.1368 0
M  V30 10 C -1.9856 2.2687 2.7997 0
M  V30 11 C -2.7553 1.1846 2.3881 0
M  V30 12 C -3.2294 1.1104 1.0788 0
M  V30 13 C -2.9399 2.1375 0.1852 0
M  V30 14 C -2.1695 3.2282 0.5870 0
M  V30 15 C -1.7015 3.2923 1.8963 0
M  V30 16 H -2.9934 0.4151 3.1042 0
M  V30 17 H -3.3377 2.0830 -0.8150 0
M  V30 18 H -1.1331 4.1551 2.2028 0
M  V30 19 C 1.9350 1.6472 3.0580 0
M  V30 20 C 1.4205 2.8752 2.6525 0
M  V30 21 C 1.7232 3.3870 1.3911 0
M  V30 22 C 2.5579 2.6674 0.5411 0
M  V30 23 C 3.0788 1.4359 0.9373 0
M  V30 24 C 2.7703 0.9344 2.1984 0
M  V30 25 H 0.8010 3.4304 3.3377 0
M  V30 26 H 2.8088 3.0880 -0.4190 0
M  V30 27 H 3.2038 -0.0037 2.5044 0
M  V30 28 C -1.2140 0.4275 -2.2824 0
M  V30 29 C -0.2200 -0.5447 -2.2181 0
M  V30 30 C 1.1225 -0.1785 -2.1274 0
M  V30 31 C 1.4664 1.1702 -2.1161 0
M  V30 32 C 0.4785 2.1524 -2.1801 0
M  V30 33 C -0.8584 1.7758 -2.2704 0
M  V30 34 H -0.5059 -1.5830 -2.2590 0
M  V30 35 H 2.5091 1.4398 -2.0764 0
M  V30 36 H -1.6100 2.5441 -2.3501 0
M  V30 37 Zn -0.3638 0.8349 5.3670 0 CHG=2
M  V30 38 C -4.7535 -2.2185 8.8279 0
M  V30 39 C -3.8437 -1.4160 7.9919 0
M  V30 40 C -3.4709 -0.1148 8.3491 0
M  V30 41 C -2.5874 0.5997 7.5575 0
M  V30 42 N -2.0499 0.1241 6.4379 0
M  V30 43 C -2.4137 -1.1164 6.0577 0
M  V30 44 C -1.8577 -1.6074 4.8165 0
M  V30 45 N -0.9679 -0.9640 4.1609 0
M  V30 46 C -3.2952 -1.9002 6.7966 0
M  V30 47 H -5.0010 -3.1726 8.3725 0
M  V30 48 H -5.6717 -1.6697 9.0389 0
M  V30 49 H -4.2998 -2.4085 9.8027 0
M  V30 50 H -3.8660 0.3316 9.2487 0
M  V30 51 H -2.3006 1.6004 7.8451 0
M  V30 52 H -2.2406 -2.5660 4.4620 0
M  V30 53 H -3.5475 -2.8934 6.4558 0
M  V30 54 C 4.1199 -1.2153 9.4003 0
M  V30 55 C 3.0548 -0.8823 8.4384 0
M  V30 56 C 1.7122 -1.1869 8.6917 0
M  V30 57 C 0.7321 -0.8299 7.7809 0
M  V30 58 N 0.9826 -0.1987 6.6374 0
M  V30 59 C 2.2705 0.0821 6.3573 0
M  V30 60 C 2.5366 0.7294 5.0921 0
M  V30 61 N 1.6023 1.1355 4.3190 0
M  V30 62 C 3.3144 -0.2419 7.2191 0
M  V30 63 H 3.9759 -0.6581 10.3284 0
M  V30 64 H 5.1102 -0.9908 9.0159 0
M  V30 65 H 4.0717 -2.2668 9.6844 0
M  V30 66 H 1.4371 -1.6944 9.6036 0
M  V30 67 H -0.3017 -1.0633 7.9886 0
M  V30 68 H 3.5875 0.8550 4.8258 0
M  V30 69 H 4.3296 0.0142 6.9548 0
M  V30 70 C -1.1794 5.9883 9.0212 0
M  V30 71 C -0.8523 4.8408 8.1571 0
M  V30 72 C 0.0499 3.8491 8.5598 0
M  V30 73 C 0.3095 2.7663 7.7366 0
M  V30 74 N -0.2535 2.5949 6.5440 0
M  V30 75 C -1.1057 3.5493 6.1214 0
M  V30 76 C -1.6788 3.3756 4.8054 0
M  V30 77 N -1.4966 2.3167 4.1116 0
M  V30 78 C -1.4208 4.6676 6.8878 0
M  V30 79 H -1.8221 6.7098 8.5260 0
M  V30 80 H -0.2727 6.4868 9.3649 0
M  V30 81 H -1.6820 5.6448 9.9278 0
M  V30 82 H 0.5397 3.9230 9.5187 0
M  V30 83 H 1.0020 2.0030 8.0593 0
M  V30 84 H -2.2815 4.2037 4.4282 0
M  V30 85 H -2.1186 5.4000 6.5097 0
M  V30 86 Zn -3.8006 -1.3676 -1.1141 0 CHG=2
M  V30 87 C -3.7298 -6.9174 -4.2394 0
M  V30 88 C -3.6883 -5.5734 -3.6373 0
M  V30 89 C -4.4937 -4.5301 -4.1088 0
M  V30 90 C -4.4541 -3.2877 -3.4982 0
M  V30 91 N -3.6742 -3.0008 -2.4599 0
M  V30 92 C -2.8693 -3.9805 -2.0038 0
M  V30 93 C -1.9938 -3.6457 -0.9029 0
M  V30 94 N -2.0522 -2.5209 -0.2971 0
M  V30 95 C -2.8490 -5.2560 -2.5607 0
M  V30 96 H -2.9844 -7.5840 -3.8163 0
M  V30 97 H -3.5952 -6.8631 -5.3200 0
M  V30 98 H -4.7150 -7.3647 -4.0928 0
M  V30 99 H -5.1546 -4.6950 -4.9459 0
M  V30 100 H -5.0843 -2.4911 -3.8651 0
M  V30 101 H -1.2710 -4.4097 -0.6114 0
M  V30 102 H -2.1937 -6.0111 -2.1524 0
M  V30 103 C -8.8757 -3.3751 2.1708 0
M  V30 104 C -7.6290 -3.0240 1.4686 0
M  V30 105 C -7.0950 -3.8393 0.4638 0
M  V30 106 C -5.9390 -3.4627 -0.1991 0
M  V30 107 N -5.2707 -2.3428 0.0617 0
M  V30 108 C -5.7494 -1.5535 1.0433 0
M  V30 109 C -4.9916 -0.3606 1.3488 0
M  V30 110 N -3.9843 0.0097 0.6531 0
M  V30 111 C -6.9047 -1.8593 1.7569 0
M  V30 112 H -9.7142 -3.3729 1.4713 0
M  V30 113 H -9.1030 -2.6877 2.9799 0
M  V30 114 H -8.8283 -4.3917 2.5618 0
M  V30 115 H -7.5893 -4.7610 0.1978 0
M  V30 116 H -5.5386 -4.0953 -0.9775 0
M  V30 117 H -5.3254 0.2150 2.2139 0
M  V30 118 H -7.2545 -1.1886 2.5277 0
M  V30 119 C -7.7064 0.9947 -5.5567 0
M  V30 120 C -6.8671 0.5401 -4.4345 0
M  V30 121 C -7.4059 -0.1599 -3.3485 0
M  V30 122 C -6.5830 -0.6018 -2.3261 0
M  V30 123 N -5.2690 -0.3986 -2.2968 0
M  V30 124 C -4.7296 0.2962 -3.3176 0
M  V30 125 C -3.3074 0.5495 -3.2545 0
M  V30 126 N -2.5597 0.0435 -2.3487 0
M  V30 127 C -5.4864 0.7744 -4.3834 0
M  V30 128 H -7.1522 1.5953 -6.2716 0
M  V30 129 H -8.5642 1.5624 -5.1951 0
M  V30 130 H -8.1288 0.1359 -6.0823 0
M  V30 131 H -8.4650 -0.3639 -3.3102 0
M  V30 132 H -7.0072 -1.1469 -1.4958 0
M  V30 133 H -2.8988 1.2029 -4.0273 0
M  V30 134 H -5.0057 1.3169 -5.1841 0
M  V30 135 Zn 3.8423 -1.4419 -0.6166 0 CHG=2
M  V30 136 C 7.7763 -4.6210 3.2551 0
M  V30 137 C 6.9230 -3.7621 2.4156 0
M  V30 138 C 7.4582 -2.9556 1.4043 0
M  V30 139 C 6.6240 -2.1855 0.6114 0
M  V30 140 N 5.3015 -2.1511 0.7482 0
M  V30 141 C 4.7636 -2.8981 1.7323 0
M  V30 142 C 3.3297 -2.8201 1.9007 0
M  V30 143 N 2.5773 -2.1782 1.0898 0
M  V30 144 C 5.5316 -3.6998 2.5719 0
M  V30 145 H 7.2181 -5.1137 4.0454 0
M  V30 146 H 8.5936 -4.0473 3.6928 0
M  V30 147 H 8.2563 -5.3873 2.6430 0
M  V30 148 H 8.5239 -2.9391 1.2351 0
M  V30 149 H 7.0459 -1.5718 -0.1706 0
M  V30 150 H 2.9162 -3.3419 2.7655 0
M  V30 151 H 5.0525 -4.2892 3.3395 0
M  V30 152 C 4.1437 -6.2738 -4.7564 0
M  V30 153 C 4.0174 -5.2518 -3.7027 0
M  V30 154 C 4.7873 -5.2994 -2.5346 0
M  V30 155 C 4.6675 -4.3041 -1.5792 0
M  V30 156 N 3.8401 -3.2690 -1.6922 0
M  V30 157 C 3.0682 -3.2142 -2.7953 0
M  V30 158 C 2.1410 -2.1086 -2.8882 0
M  V30 159 N 2.1249 -1.1530 -2.0384 0
M  V30 160 C 3.1280 -4.1733 -3.8023 0
M  V30 161 H 3.4164 -6.1409 -5.5515 0
M  V30 162 H 4.0448 -7.2761 -4.3391 0
M  V30 163 H 5.1433 -6.2402 -5.1946 0
M  V30 164 H 5.4833 -6.1096 -2.3801 0
M  V30 165 H 5.2708 -4.3462 -0.6844 0
M  V30 166 H 1.4463 -2.1307 -3.7297 0
M  V30 167 H 2.4962 -4.0794 -4.6731 0
M  V30 168 C 8.8980 1.1975 -3.4530 0
M  V30 169 C 7.6590 0.5993 -2.9258 0
M  V30 170 C 7.1983 -0.6474 -3.3651 0
M  V30 171 C 6.0475 -1.1958 -2.8243 0
M  V30 172 N 5.3175 -0.6004 -1.8855 0
M  V30 173 C 5.7249 0.6131 -1.4647 0
M  V30 174 C 4.9004 1.2711 -0.4758 0
M  V30 175 N 3.8999 0.6965 0.0760 0
M  V30 176 C 6.8699 1.2332 -1.9566 0
M  V30 177 H 9.7570 0.5776 -3.1883 0
M  V30 178 H 9.0683 2.2001 -3.0727 0
M  V30 179 H 8.8842 1.2214 -4.5430 0
M  V30 180 H 7.7453 -1.1883 -4.1221 0
M  V30 181 H 5.7039 -2.1613 -3.1650 0
M  V30 182 H 5.1770 2.2957 -0.2212 0
M  V30 183 H 7.1613 2.2022 -1.5793 0
M  V30 184 Zn 0.0870 5.2283 -0.8912 0 CHG=2
M  V30 185 C -4.4251 8.0932 -4.3565 0
M  V30 186 C -3.3456 7.3566 -3.6762 0
M  V30 187 C -1.9990 7.5554 -4.0029 0
M  V30 188 C -1.0073 6.8707 -3.3207 0
M  V30 189 N -1.2497 6.0016 -2.3436 0
M  V30 190 C -2.5395 5.7724 -2.0280 0
M  V30 191 C -2.7940 4.7939 -0.9944 0
M  V30 192 N -1.8550 4.2526 -0.3154 0
M  V30 193 C -3.5948 6.4193 -2.6646 0
M  V30 194 H -5.4116 7.7611 -4.0477 0
M  V30 195 H -4.3350 8.0019 -5.4392 0
M  V30 196 H -4.3403 9.1617 -4.1484 0
M  V30 197 H -1.7305 8.2507 -4.7834 0
M  V30 198 H 0.0290 7.0361 -3.5755 0
M  V30 199 H -3.8402 4.5362 -0.8208 0
M  V30 200 H -4.6119 6.2095 -2.3682 0
M  V30 201 C 0.5257 10.4579 2.7190 0
M  V30 202 C 0.2847 9.2390 1.9273 0
M  V30 203 C -0.5809 9.2346 0.8272 0
M  V30 204 C -0.7592 8.0795 0.0845 0
M  V30 205 N -0.1486 6.9288 0.3525 0
M  V30 206 C 0.6697 6.8995 1.4227 0
M  V30 207 C 1.2949 5.6327 1.7310 0
M  V30 208 N 1.1883 4.6111 0.9691 0
M  V30 209 C 0.9035 8.0161 2.2201 0
M  V30 210 H 1.1478 10.2704 3.5889 0
M  V30 211 H -0.4154 10.9073 3.0367 0
M  V30 212 H 1.0146 11.2154 2.1030 0
M  V30 213 H -1.1057 10.1361 0.5503 0
M  V30 214 H -1.4240 8.0880 -0.7666 0
M  V30 215 H 1.8689 5.5908 2.6584 0
M  V30 216 H 1.5770 7.9451 3.0613 0
M  V30 217 C 4.5048 7.6442 -4.7923 0
M  V30 218 C 3.5843 7.0903 -3.7841 0
M  V30 219 C 3.1360 7.8523 -2.6988 0
M  V30 220 C 2.2448 7.3112 -1.7874 0
M  V30 221 N 1.7687 6.0720 -1.8680 0
M  V30 222 C 2.2057 5.3087 -2.8889 0
M  V30 223 C 1.7160 3.9493 -2.9429 0
M  V30 224 N 0.8180 3.5111 -2.1446 0
M  V30 225 C 3.1001 5.7767 -3.8473 0
M  V30 226 H 5.3857 8.0768 -4.3173 0
M  V30 227 H 4.0279 8.4703 -5.3237 0
M  V30 228 H 4.8165 6.9019 -5.5208 0
M  V30 229 H 3.4786 8.8682 -2.5750 0
M  V30 230 H 1.8995 7.9094 -0.9571 0
M  V30 231 H 2.1568 3.3075 -3.7076 0
M  V30 232 H 3.4123 5.1295 -4.6535 0
M  V30 END ATOM
M  V30 BEGIN BOND
M  V30 1 2 1 2
M  V30 2 1 2 3
M  V30 3 2 3 4
M  V30 4 1 4 5
M  V30 5 2 5 6
M  V30 6 1 6 1
M  V30 7 1 2 7
M  V30 8 1 4 8
M  V30 9 1 6 9
M  V30 10 2 10 11
M  V30 11 1 11 12
M  V30 12 2 12 13
M  V30 13 1 13 14
M  V30 14 2 14 15
M  V30 15 1 15 10
M  V30 16 1 11 16
M  V30 17 1 13 17
M  V30 18 1 15 18
M  V30 19 2 19 20
M  V30 20 1 20 21
M  V30 21 2 21 22
M  V30 22 1 22 23
M  V30 23 2 23 24
M  V30 24 1 24 19
M  V30 25 1 20 25
M  V30 26 1 22 26
M  V30 27 1 24 27
M  V30 28 2 28 29
M  V30 29 1 29 30
M  V30 30 2 30 31
M  V30 31 1 31 32
M  V30 32 2 32 33
M  V30 33 1 33 28
M  V30 34 1 29 34
M  V30 35 1 31 35
M  V30 36 1 33 36
M  V30 37 1 38 39
M  V30 38 2 39 40
M  V30 39 1 40 41
M  V30 40 2 41 42
M  V30 41 1 42 43
M  V30 42 1 43 44
M  V30 43 2 44 45
M  V30 44 2 43 46
M  V30 45 1 46 39
M  V30 46 1 38 47
M  V30 47 1 38 48
M  V30 48 1 38 49
M  V30 49 1 40 50
M  V30 50 1 41 51
M  V30 51 1 44 52
M  V30 52 1 46 53
M  V30 53 1 54 55
M  V30 54 2 55 56
M  V30 55 1 56 57
M  V30 56 2 57 58
M  V30 57 1 58 59
M  V30 58 1 59 60
M  V30 59 2 60 61
M  V30 60 2 59 62
M  V30 61 1 62 55
M  V30 62 1 54 63
M  V30 63 1 54 64
M  V30 64 1 54 65
M  V30 65 1 56 66
M  V30 66 1 57 67
M  V30 67 1 60 68
M  V30 68 1 62 69
M  V30 69 1 70 71
M  V30 70 2 71 72
M  V30 71 1 72 73
M  V30 72 2 73 74
M  V30 73 1 74 75
M  V30 74 1 75 76
M  V30 75 2 76 77
M  V30 76 2 75 78
M  V30 77 1 78 71
M  V30 78 1 70 79
M  V30 79 1 70 80
M  V30 80 1 70 81
M  V30 81 1 72 82
M  V30 82 1 73 83
M  V30 83 1 76 84
M  V30 84 1 78 85
M  V30 85 9 45 37
M  V30 86 9 42 37
M  V30 87 9 77 37
M  V30 88 9 74 37
M  V30 89 9 61 37
M  V30 90 9 58 37
M  V30 91 1 87 88
M  V30 92 2 88 89
M  V30 93 1 89 90
M  V30 94 2 90 91
M  V30 95 1 91 92
M  V30 96 1 92 93
M  V30 97 2 93 94
M  V30 98 2 92 95
M  V30 99 1 95 88
M  V30 100 1 87 96
M  V30 101 1 87 97
M  V30 102 1 87 98
M  V30 103 1 89 99
M  V30 104 1 90 100
M  V30 105 1 93 101
M  V30 106 1 95 102
M  V30 107 1 103 104
M  V30 108 2 104 105
M  V30 109 1 105 106
M  V30 110 2 106 107
M  V30 111 1 107 108
M  V30 112 1 108 109
M  V30 113 2 109 110
M  V30 114 2 108 111
M  V30 115 1 111 104
M  V30 116 1 103 112
M  V30 117 1 103 113
M  V30 118 1 103 114
M  V30 119 1 105 115
M  V30 120 1 106 116
M  V30 121 1 109 117
M  V30 122 1 111 118
M  V30 123 1 119 120
M  V30 124 2 120 121
M  V30 125 1 121 122
M  V30 126 2 122 123
M  V30 127 1 123 124
M  V30 128 1 124 125
M  V30 129 2 125 126
M  V30 130 2 124 127
M  V30 131 1 127 120
M  V30 132 1 119 128
M  V30 133 1 119 129
M  V30 134 1 119 130
M  V30 135 1 121 131
M  V30 136 1 122 132
M  V30 137 1 125 133
M  V30 138 1 127 134
M  V30 139 9 94 86
M  V30 140 9 91 86
M  V30 141 9 126 86
M  V30 142 9 123 86
M  V30 143 9 110 86
M  V30 144 9 107 86
M  V30 145 1 136 137
M  V30 146 2 137 138
M  V30 147 1 138 139
M  V30 148 2 139 140
M  V30 149 1 140 141
M  V30 150 1 141 142
M  V30 151 2 142 143
M  V30 152 2 141 144
M  V30 153 1 144 137
M  V30 154 1 136 145
M  V30 155 1 136 146
M  V30 156 1 136 147
M  V30 157 1 138 148
M  V30 158 1 139 149
M  V30 159 1 142 150
M  V30 160 1 144 151
M  V30 161 1 152 153
M  V30 162 2 153 154
M  V30 163 1 154 155
M  V30 164 2 155 156
M  V30 165 1 156 157
M  V30 166 1 157 158
M  V30 167 2 158 159
M  V30 168 2 157 160
M  V30 169 1 160 153
M  V30 170 1 152 161
M  V30 171 1 152 162
M  V30 172 1 152 163
M  V30 173 1 154 164
M  V30 174 1 155 165
M  V30 175 1 158 166
M  V30 176 1 160 167
M  V30 177 1 168 169
M  V30 178 2 169 170
M  V30 179 1 170 171
M  V30 180 2 171 172
M  V30 181 1 172 173
M  V30 182 1 173 174
M  V30 183 2 174 175
M  V30 184 2 173 176
M  V30 185 1 176 169
M  V30 186 1 168 177
M  V30 187 1 168 178
M  V30 188 1 168 179
M  V30 189 1 170 180
M  V30 190 1 171 181
M  V30 191 1 174 182
M  V30 192 1 176 183
M  V30 193 9 143 135
M  V30 194 9 140 135
M  V30 195 9 175 135
M  V30 196 9 172 135
M  V30 197 9 159 135
M  V30 198 9 156 135
M  V30 199 1 185 186
M  V30 200 2 186 187
M  V30 201 1 187 188
M  V30 202 2 188 189
M  V30 203 1 189 190
M  V30 204 1 190 191
M  V30 205 2 191 192
M  V30 206 2 190 193
M  V30 207 1 193 186
M  V30 208 1 185 194
M  V30 209 1 185 195
M  V30 210 1 185 196
M  V30 211 1 187 197
M  V30 212 1 188 198
M  V30 213 1 191 199
M  V30 214 1 193 200
M  V30 215 1 201 202
M  V30 216 2 202 203
M  V30 217 1 203 204
M  V30 218 2 204 205
M  V30 219 1 205 206
M  V30 220 1 206 207
M  V30 221 2 207 208
M  V30 222 2 206 209
M  V30 223 1 209 202
M  V30 224 1 201 210
M  V30 225 1 201 211
M  V30 226 1 201 212
M  V30 227 1 203 213
M  V30 228 1 204 214
M  V30 229 1 207 215
M  V30 230 1 209 216
M  V30 231 1 217 218
M  V30 232 2 218 219
M  V30 233 1 219 220
M  V30 234 2 220 221
M  V30 235 1 221 222
M  V30 236 1 222 223
M  V30 237 2 223 224
M  V30 238 2 222 225
M  V30 239 1 225 218
M  V30 240 1 217 226
M  V30 241 1 217 227
M  V30 242 1 217 228
M  V30 243 1 219 229
M  V30 244 1 220 230
M  V30 245 1 223 231
M  V30 246 1 225 232
M  V30 247 9 192 184
M  V30 248 9 189 184
M  V30 249 9 224 184
M  V30 250 9 221 184
M  V30 251 9 208 184
M  V30 252 9 205 184
M  V30 253 1 1 45
M  V30 254 1 10 77
M  V30 255 1 19 61
M  V30 256 1 5 94
M  V30 257 1 12 110
M  V30 258 1 28 126
M  V30 259 1 3 143
M  V30 260 1 23 175
M  V30 261 1 30 159
M  V30 262 1 14 192
M  V30 263 1 21 208
M  V30 264 1 32 224
M  V30 END BOND
M  V30 END CTAB
M  END

$$$$
