
     RDKit          3D

  0  0  0  0  0  0  0  0  0  0999 V3000
M  V30 BEGIN CTAB
M  V30 COUNTS 352 396 0 0 0
M  V30 BEGIN ATOM
M  V30 1 C -0.8580 -2.3371 6.6686 0
M  V30 2 C 0.1912 -3.2310 6.4650 0
M  V30 3 C 0.3878 -3.8098 5.2257 0
M  V30 4 C -1.7271 -2.0739 5.6085 0
M  V30 5 C -1.5014 -2.6275 4.3658 0
M  V30 6 C -0.4321 -3.4949 4.1405 0
M  V30 7 C -0.1659 -4.0179 2.7885 0
M  V30 8 C 1.1438 -4.1776 2.3414 0
M  V30 9 C 1.4179 -4.6061 1.0445 0
M  V30 10 C 2.8045 -4.7076 0.5560 0
M  V30 11 C 3.7724 -3.7934 0.9723 0
M  V30 12 C 5.0566 -3.8300 0.4708 0
M  V30 13 C 5.4082 -4.7639 -0.5051 0
M  V30 14 C 4.4611 -5.7069 -0.8990 0
M  V30 15 C 3.1876 -5.6858 -0.3636 0
M  V30 16 C 0.3521 -4.8804 0.1906 0
M  V30 17 C -0.9676 -4.7301 0.6102 0
M  V30 18 C -2.0865 -4.9543 -0.3224 0
M  V30 19 C -1.9680 -4.6010 -1.6667 0
M  V30 20 C -3.0260 -4.7381 -2.5407 0
M  V30 21 C -4.2631 -5.1975 -2.0863 0
M  V30 22 C -4.3812 -5.5913 -0.7550 0
M  V30 23 C -3.3050 -5.4844 0.1051 0
M  V30 24 C -1.2118 -4.3026 1.9132 0
M  V30 25 H 0.8281 -3.4934 7.2965 0
M  V30 26 H 1.1807 -4.5322 5.1025 0
M  V30 27 H -2.5475 -1.3864 5.7540 0
M  V30 28 H -2.1562 -2.3624 3.5498 0
M  V30 29 H 1.9610 -3.9654 3.0134 0
M  V30 30 H 3.5115 -3.0247 1.6837 0
M  V30 31 H 5.7835 -3.0976 0.7900 0
M  V30 32 H 4.7443 -6.4759 -1.6021 0
M  V30 33 H 2.4834 -6.4520 -0.6510 0
M  V30 34 H 0.5534 -5.2162 -0.8150 0
M  V30 35 H -1.0389 -4.1903 -2.0316 0
M  V30 36 H -2.9191 -4.4366 -3.5724 0
M  V30 37 H -5.3138 -6.0133 -0.4112 0
M  V30 38 H -3.4065 -5.8341 1.1216 0
M  V30 39 H -2.2309 -4.1898 2.2495 0
M  V30 40 C -0.8896 1.5356 6.6672 0
M  V30 41 C -0.5201 0.7106 5.6061 0
M  V30 42 C -1.1186 0.8477 4.3710 0
M  V30 43 C -1.8929 2.4863 6.4604 0
M  V30 44 C -2.4936 2.6130 5.2214 0
M  V30 45 C -2.1133 1.7987 4.1584 0
M  V30 46 C -2.7586 1.8830 2.8286 0
M  V30 47 C -3.5545 0.8278 2.4005 0
M  V30 48 C -4.1475 0.8418 1.1397 0
M  V30 49 C -4.9698 -0.2927 0.6876 0
M  V30 50 C -6.0720 -0.1155 -0.1514 0
M  V30 51 C -6.8017 -1.1927 -0.6131 0
M  V30 52 C -6.4706 -2.4888 -0.2204 0
M  V30 53 C -5.4041 -2.6714 0.6611 0
M  V30 54 C -4.6554 -1.5928 1.0830 0
M  V30 55 C -3.9144 1.9337 0.3079 0
M  V30 56 C -3.1108 2.9977 0.7126 0
M  V30 57 C -2.8331 4.1151 -0.2055 0
M  V30 58 C -2.7118 3.8888 -1.5768 0
M  V30 59 C -2.4271 4.9193 -2.4485 0
M  V30 60 C -2.2030 6.2109 -1.9692 0
M  V30 61 C -2.3398 6.4514 -0.6025 0
M  V30 62 C -2.6644 5.4216 0.2577 0
M  V30 63 C -2.5434 2.9657 1.9864 0
M  V30 64 H 0.2572 -0.0197 5.7504 0
M  V30 65 H -0.8073 0.2104 3.5562 0
M  V30 66 H -2.2318 3.1023 7.2799 0
M  V30 67 H -3.2775 3.3416 5.0809 0
M  V30 68 H -3.7389 0.0076 3.0777 0
M  V30 69 H -6.3744 0.8811 -0.4327 0
M  V30 70 H -7.6544 -1.0375 -1.2559 0
M  V30 71 H -5.1344 -3.6711 0.9658 0
M  V30 72 H -3.7987 -1.7674 1.7158 0
M  V30 73 H -4.3667 1.9534 -0.6716 0
M  V30 74 H -2.8216 2.8883 -1.9674 0
M  V30 75 H -2.3197 4.7206 -3.5038 0
M  V30 76 H -2.2180 7.4561 -0.2284 0
M  V30 77 H -2.8048 5.6391 1.3051 0
M  V30 78 H -1.8992 3.7685 2.3123 0
M  V30 79 C 2.5290 -0.2580 6.6538 0
M  V30 80 C 2.7127 1.1135 6.4834 0
M  V30 81 C 3.0234 1.6275 5.2400 0
M  V30 82 C 2.6848 -1.0981 5.5502 0
M  V30 83 C 2.9555 -0.5711 4.3052 0
M  V30 84 C 3.1315 0.8004 4.1204 0
M  V30 85 C 3.4098 1.3361 2.7777 0
M  V30 86 C 2.8974 2.5672 2.3697 0
M  V30 87 C 3.1171 3.0379 1.0816 0
M  V30 88 C 2.5010 4.3020 0.6163 0
M  V30 89 C 1.4431 4.2463 -0.2872 0
M  V30 90 C 0.8571 5.3998 -0.7657 0
M  V30 91 C 1.3010 6.6492 -0.3357 0
M  V30 92 C 2.3675 6.7101 0.5649 0
M  V30 93 C 2.9581 5.5495 1.0307 0
M  V30 94 C 3.8710 2.2801 0.1912 0
M  V30 95 C 4.3977 1.0558 0.5813 0
M  V30 96 C 5.1452 0.2059 -0.3738 0
M  V30 97 C 6.4434 0.5029 -0.7782 0
M  V30 98 C 7.1143 -0.3202 -1.6642 0
M  V30 99 C 6.4985 -1.4688 -2.1682 0
M  V30 100 C 5.2059 -1.7759 -1.7469 0
M  V30 101 C 4.5389 -0.9446 -0.8713 0
M  V30 102 C 4.1596 0.5923 1.8683 0
M  V30 103 H 2.6403 1.7662 7.3396 0
M  V30 104 H 3.2016 2.6868 5.1402 0
M  V30 105 H 2.5356 -2.1605 5.6685 0
M  V30 106 H 3.0113 -1.2372 3.4579 0
M  V30 107 H 2.2881 3.1487 3.0455 0
M  V30 108 H 1.0732 3.2864 -0.6169 0
M  V30 109 H 0.0325 5.3392 -1.4548 0
M  V30 110 H 2.7596 7.6676 0.8741 0
M  V30 111 H 3.7899 5.6128 1.7159 0
M  V30 112 H 4.0437 2.6455 -0.8105 0
M  V30 113 H 6.9362 1.3802 -0.3875 0
M  V30 114 H 8.1330 -0.0886 -1.9373 0
M  V30 115 H 4.7189 -2.6547 -2.1326 0
M  V30 116 H 3.5304 -1.1887 -0.5705 0
M  V30 117 H 4.5943 -0.3491 2.1691 0
M  V30 118 C -5.2695 -1.8961 -3.8543 0
M  V30 119 C -4.3498 -2.0195 -2.8141 0
M  V30 120 C -3.0681 -1.5284 -2.9511 0
M  V30 121 C -4.8605 -1.2853 -5.0429 0
M  V30 122 C -3.5717 -0.8015 -5.1754 0
M  V30 123 C -2.6578 -0.9135 -4.1315 0
M  V30 124 C -1.2612 -0.4353 -4.2458 0
M  V30 125 C -0.2290 -1.3650 -4.2560 0
M  V30 126 C 1.1034 -0.9595 -4.3070 0
M  V30 127 C 2.1857 -1.9582 -4.2974 0
M  V30 128 C 2.0382 -3.1499 -3.5871 0
M  V30 129 C 3.0389 -4.0985 -3.5615 0
M  V30 130 C 4.2529 -3.8618 -4.2080 0
M  V30 131 C 4.4099 -2.6772 -4.9263 0
M  V30 132 C 3.3856 -1.7528 -4.9814 0
M  V30 133 C 1.3827 0.4048 -4.3296 0
M  V30 134 C 0.3639 1.3551 -4.3113 0
M  V30 135 C 0.6731 2.7942 -4.2570 0
M  V30 136 C 1.7799 3.2544 -3.5430 0
M  V30 137 C 2.0390 4.6031 -3.4166 0
M  V30 138 C 1.1706 5.5459 -3.9696 0
M  V30 139 C 0.0877 5.0962 -4.7222 0
M  V30 140 C -0.1445 3.7431 -4.8738 0
M  V30 141 C -0.9613 0.9197 -4.2831 0
M  V30 142 H -4.6555 -2.4792 -1.8900 0
M  V30 143 H -2.3742 -1.6188 -2.1280 0
M  V30 144 H -5.5398 -1.2222 -5.8799 0
M  V30 145 H -3.2663 -0.3462 -6.1053 0
M  V30 146 H -0.4768 -2.4156 -4.2606 0
M  V30 147 H 1.1328 -3.3324 -3.0288 0
M  V30 148 H 2.9102 -5.0073 -2.9935 0
M  V30 149 H 5.3282 -2.5049 -5.4661 0
M  V30 150 H 3.5136 -0.8653 -5.5814 0
M  V30 151 H 2.4109 0.7309 -4.3606 0
M  V30 152 H 2.4352 2.5472 -3.0573 0
M  V30 153 H 2.8862 4.9388 -2.8365 0
M  V30 154 H -0.5476 5.8183 -5.2131 0
M  V30 155 H -0.9650 3.4159 -5.4944 0
M  V30 156 H -1.7665 1.6382 -4.2512 0
M  V30 157 Zn 0.3262 -0.3848 9.0086 0 CHG=2
M  V30 158 N -1.0217 -1.6958 7.9017 0
M  V30 159 C -2.1812 -1.6828 8.4395 0
M  V30 160 C -2.4442 -1.0011 9.6834 0
M  V30 161 C -3.6859 -1.1149 10.3152 0
M  V30 162 C -3.8918 -0.4767 11.5223 0
M  V30 163 C -2.8562 0.2725 12.0860 0
M  V30 164 C -3.0243 0.9661 13.3846 0
M  V30 165 C -1.6545 0.3315 11.3706 0
M  V30 166 N -1.4469 -0.2771 10.2147 0
M  V30 167 H -3.0187 -2.2218 7.9955 0
M  V30 168 H -4.4686 -1.7055 9.8652 0
M  V30 169 H -4.8399 -0.5563 12.0322 0
M  V30 170 H -3.2727 0.2484 14.1665 0
M  V30 171 H -3.8601 1.6638 13.3360 0
M  V30 172 H -2.1293 1.5077 13.6762 0
M  V30 173 H -0.8258 0.8986 11.7720 0
M  V30 174 N 2.1289 -0.7818 7.8868 0
M  V30 175 C 2.7677 -1.7625 8.3987 0
M  V30 176 C 2.3318 -2.3912 9.6239 0
M  V30 177 C 3.0995 -3.3803 10.2443 0
M  V30 178 C 2.6480 -3.9466 11.4207 0
M  V30 179 C 1.4310 -3.5258 11.9626 0
M  V30 180 C 0.9072 -4.1036 13.2221 0
M  V30 181 C 0.7339 -2.5335 11.2620 0
M  V30 182 N 1.1610 -1.9822 10.1391 0
M  V30 183 H 3.6785 -2.1519 7.9422 0
M  V30 184 H 4.0384 -3.6880 9.8107 0
M  V30 185 H 3.2271 -4.7076 11.9215 0
M  V30 186 H 0.7784 -5.1810 13.1187 0
M  V30 187 H -0.0426 -3.6622 13.5086 0
M  V30 188 H 1.6231 -3.9596 14.0313 0
M  V30 189 H -0.2137 -2.1766 11.6417 0
M  V30 190 N -0.2200 1.3885 7.8866 0
M  V30 191 C 0.0974 2.4286 8.5612 0
M  V30 192 C 0.8538 2.3428 9.7878 0
M  V30 193 C 1.2050 3.4932 10.5004 0
M  V30 194 C 1.9588 3.3720 11.6513 0
M  V30 195 C 2.3662 2.1047 12.0756 0
M  V30 196 C 3.1836 1.9261 13.2983 0
M  V30 197 C 1.9640 1.0155 11.2929 0
M  V30 198 N 1.2344 1.1215 10.1956 0
M  V30 199 H -0.1422 3.4330 8.2110 0
M  V30 200 H 0.8837 4.4632 10.1539 0
M  V30 201 H 2.2359 4.2462 12.2209 0
M  V30 202 H 4.1373 2.4435 13.1916 0
M  V30 203 H 3.3764 0.8786 13.5097 0
M  V30 204 H 2.6878 2.3771 14.1575 0
M  V30 205 H 2.2526 0.0141 11.5824 0
M  V30 206 Zn -7.2987 -4.2313 -2.8026 0 CHG=2
M  V30 207 N -5.3690 -5.2353 -2.9431 0
M  V30 208 C -5.2402 -5.7754 -4.0943 0
M  V30 209 C -6.3196 -5.8098 -5.0511 0
M  V30 210 C -6.1969 -6.5236 -6.2466 0
M  V30 211 C -7.2635 -6.5641 -7.1228 0
M  V30 212 C -8.4422 -5.8882 -6.7984 0
M  V30 213 C -9.6180 -5.9116 -7.6999 0
M  V30 214 C -8.4613 -5.1952 -5.5823 0
M  V30 215 N -7.4458 -5.1515 -4.7359 0
M  V30 216 H -4.3139 -6.2694 -4.3894 0
M  V30 217 H -5.2798 -7.0449 -6.4726 0
M  V30 218 H -7.1945 -7.1152 -8.0484 0
M  V30 219 H -9.9523 -6.9371 -7.8575 0
M  V30 220 H -9.3497 -5.5251 -8.6829 0
M  V30 221 H -10.4455 -5.3292 -7.3055 0
M  V30 222 H -9.3546 -4.6599 -5.2909 0
M  V30 223 N -7.1492 -3.5915 -0.7477 0
M  V30 224 C -7.6196 -4.4842 0.0355 0
M  V30 225 C -8.2523 -5.6786 -0.4744 0
M  V30 226 C -8.8736 -6.5920 0.3812 0
M  V30 227 C -9.4767 -7.7143 -0.1526 0
M  V30 228 C -9.4477 -7.9181 -1.5344 0
M  V30 229 C -10.0820 -9.1060 -2.1518 0
M  V30 230 C -8.7950 -6.9478 -2.3051 0
M  V30 231 N -8.2200 -5.8685 -1.8035 0
M  V30 232 H -7.5817 -4.3709 1.1196 0
M  V30 233 H -8.8880 -6.4134 1.4452 0
M  V30 234 H -9.9687 -8.4305 0.4880 0
M  V30 235 H -9.9764 -9.1086 -3.2326 0
M  V30 236 H -11.1417 -9.1436 -1.8996 0
M  V30 237 H -9.6422 -10.0197 -1.7524 0
M  V30 238 H -8.7453 -7.0627 -3.3793 0
M  V30 239 N -6.5702 -2.3706 -3.6521 0
M  V30 240 C -7.5630 -1.6897 -4.0858 0
M  V30 241 C -8.9289 -2.0914 -3.8468 0
M  V30 242 C -9.9988 -1.3210 -4.3116 0
M  V30 243 C -11.2912 -1.7211 -4.0336 0
M  V30 244 C -11.5054 -2.8807 -3.2842 0
M  V30 245 C -12.8732 -3.3441 -2.9535 0
M  V30 246 C -10.3685 -3.5821 -2.8643 0
M  V30 247 N -9.1285 -3.2116 -3.1339 0
M  V30 248 H -7.4229 -0.7442 -4.6106 0
M  V30 249 H -9.8125 -0.4265 -4.8853 0
M  V30 250 H -12.1327 -1.1450 -4.3879 0
M  V30 251 H -12.8641 -4.2805 -2.4037 0
M  V30 252 H -13.4627 -3.4702 -3.8613 0
M  V30 253 H -13.3907 -2.5924 -2.3571 0
M  V30 254 H -10.4833 -4.4875 -2.2839 0
M  V30 255 Zn 7.2538 -4.4761 -3.1815 0 CHG=2
M  V30 256 N 6.6761 -4.7372 -1.0964 0
M  V30 257 C 7.7070 -4.6675 -0.3440 0
M  V30 258 C 9.0442 -4.5875 -0.8796 0
M  V30 259 C 10.1591 -4.6490 -0.0386 0
M  V30 260 C 11.4247 -4.6055 -0.5891 0
M  V30 261 C 11.5654 -4.4975 -1.9747 0
M  V30 262 C 12.9017 -4.4590 -2.6139 0
M  V30 263 C 10.3874 -4.4337 -2.7283 0
M  V30 264 N 9.1708 -4.4759 -2.2110 0
M  V30 265 H 7.6204 -4.7037 0.7424 0
M  V30 266 H 10.0263 -4.7405 1.0281 0
M  V30 267 H 12.3005 -4.6589 0.0398 0
M  V30 268 H 12.8343 -4.3664 -3.6938 0
M  V30 269 H 13.4621 -5.3620 -2.3717 0
M  V30 270 H 13.4848 -3.6256 -2.2228 0
M  V30 271 H 10.4506 -4.3521 -3.8048 0
M  V30 272 N 5.3100 -4.7685 -4.0811 0
M  V30 273 C 5.1232 -6.0033 -4.3489 0
M  V30 274 C 6.1651 -6.9848 -4.1544 0
M  V30 275 C 5.9977 -8.3105 -4.5631 0
M  V30 276 C 7.0266 -9.2117 -4.3695 0
M  V30 277 C 8.2101 -8.7830 -3.7635 0
M  V30 278 C 9.3409 -9.7128 -3.5371 0
M  V30 279 C 8.2770 -7.4364 -3.3843 0
M  V30 280 N 7.2996 -6.5661 -3.5703 0
M  V30 281 H 4.1774 -6.3631 -4.7558 0
M  V30 282 H 5.0769 -8.6197 -5.0329 0
M  V30 283 H 6.9228 -10.2394 -4.6832 0
M  V30 284 H 9.6700 -10.1458 -4.4818 0
M  V30 285 H 9.0239 -10.5489 -2.9140 0
M  V30 286 H 10.1842 -9.2205 -3.0622 0
M  V30 287 H 9.1723 -7.0585 -2.9099 0
M  V30 288 N 7.1114 -2.3151 -3.0988 0
M  V30 289 C 7.7962 -1.8107 -4.0546 0
M  V30 290 C 8.3866 -2.6305 -5.0860 0
M  V30 291 C 9.1143 -2.0591 -6.1339 0
M  V30 292 C 9.6336 -2.8749 -7.1201 0
M  V30 293 C 9.4125 -4.2531 -7.0591 0
M  V30 294 C 9.9418 -5.1663 -8.0987 0
M  V30 295 C 8.6709 -4.7276 -5.9702 0
M  V30 296 N 8.1786 -3.9552 -5.0169 0
M  V30 297 H 7.9189 -0.7327 -4.1644 0
M  V30 298 H 9.2705 -0.9920 -6.1654 0
M  V30 299 H 10.2043 -2.4560 -7.9352 0
M  V30 300 H 9.5179 -4.9147 -9.0710 0
M  V30 301 H 9.7188 -6.2062 -7.8791 0
M  V30 302 H 11.0205 -5.0469 -8.1975 0
M  V30 303 H 8.4756 -5.7874 -5.8775 0
M  V30 304 Zn 0.0485 8.3706 -2.8116 0 CHG=2
M  V30 305 N -1.7868 7.2260 -2.8357 0
M  V30 306 C -2.4413 7.4533 -3.9089 0
M  V30 307 C -1.9966 8.4327 -4.8729 0
M  V30 308 C -2.7766 8.7610 -5.9848 0
M  V30 309 C -2.3168 9.7115 -6.8754 0
M  V30 310 C -1.0793 10.3200 -6.6518 0
M  V30 311 C -0.5456 11.3448 -7.5789 0
M  V30 312 C -0.3715 9.9182 -5.5121 0
M  V30 313 N -0.8062 9.0138 -4.6515 0
M  V30 314 H -3.3730 6.9317 -4.1313 0
M  V30 315 H -3.7312 8.2814 -6.1364 0
M  V30 316 H -2.9049 9.9861 -7.7380 0
M  V30 317 H -0.4458 10.9312 -8.5823 0
M  V30 318 H 0.4205 11.7217 -7.2567 0
M  V30 319 H -1.2415 12.1795 -7.6620 0
M  V30 320 H 0.5917 10.3606 -5.2981 0
M  V30 321 N 0.6398 7.7891 -0.8071 0
M  V30 322 C 0.3840 8.7476 0.0006 0
M  V30 323 C -0.3635 9.9128 -0.4102 0
M  V30 324 C -0.6565 10.9381 0.4936 0
M  V30 325 C -1.4065 12.0182 0.0709 0
M  V30 326 C -1.8681 12.0609 -1.2471 0
M  V30 327 C -2.6846 13.1936 -1.7425 0
M  V30 328 C -1.5209 10.9859 -2.0744 0
M  V30 329 N -0.7955 9.9532 -1.6808 0
M  V30 330 H 0.6703 8.7023 1.0519 0
M  V30 331 H -0.2946 10.8844 1.5086 0
M  V30 332 H -1.6394 12.8245 0.7500 0
M  V30 333 H -2.9196 13.0949 -2.7981 0
M  V30 334 H -2.1654 14.1378 -1.5802 0
M  V30 335 H -3.6166 13.2586 -1.1808 0
M  V30 336 H -1.8517 10.9750 -3.1041 0
M  V30 337 N 1.3629 6.9129 -3.7459 0
M  V30 338 C 2.5276 7.4115 -3.9157 0
M  V30 339 C 2.8136 8.7997 -3.6469 0
M  V30 340 C 4.0561 9.3528 -3.9700 0
M  V30 341 C 4.2834 10.6931 -3.7277 0
M  V30 342 C 3.2687 11.4682 -3.1612 0
M  V30 343 C 3.4602 12.9127 -2.8920 0
M  V30 344 C 2.0644 10.8184 -2.8664 0
M  V30 345 N 1.8361 9.5358 -3.0958 0
M  V30 346 H 3.3504 6.8123 -4.3069 0
M  V30 347 H 4.8221 8.7366 -4.4142 0
M  V30 348 H 5.2324 11.1440 -3.9758 0
M  V30 349 H 4.3092 13.0645 -2.2257 0
M  V30 350 H 2.5783 13.3647 -2.4478 0
M  V30 351 H 3.7001 13.4404 -3.8151 0
M  V30 352 H 1.2513 11.3818 -2.4297 0
M  V30 END ATOM
M  V30 BEGIN BOND
M  V30 1 2 1 2
M  V30 2 1 2 3
M  V30 3 1 1 4
M  V30 4 2 4 5
M  V30 5 1 5 6
M  V30 6 1 6 7
M  V30 7 2 7 8
M  V30 8 1 8 9
M  V30 9 1 9 10
M  V30 10 2 10 11
M  V30 11 1 11 12
M  V30 12 2 12 13
M  V30 13 1 13 14
M  V30 14 2 14 15
M  V30 15 2 9 16
M  V30 16 1 16 17
M  V30 17 1 17 18
M  V30 18 2 18 19
M  V30 19 1 19 20
M  V30 20 2 20 21
M  V30 21 1 21 22
M  V30 22 2 22 23
M  V30 23 2 17 24
M  V30 24 2 6 3
M  V30 25 1 24 7
M  V30 26 1 15 10
M  V30 27 1 23 18
M  V30 28 1 2 25
M  V30 29 1 3 26
M  V30 30 1 4 27
M  V30 31 1 5 28
M  V30 32 1 8 29
M  V30 33 1 11 30
M  V30 34 1 12 31
M  V30 35 1 14 32
M  V30 36 1 15 33
M  V30 37 1 16 34
M  V30 38 1 19 35
M  V30 39 1 20 36
M  V30 40 1 22 37
M  V30 41 1 23 38
M  V30 42 1 24 39
M  V30 43 2 40 41
M  V30 44 1 41 42
M  V30 45 1 40 43
M  V30 46 2 43 44
M  V30 47 1 44 45
M  V30 48 1 45 46
M  V30 49 2 46 47
M  V30 50 1 47 48
M  V30 51 1 48 49
M  V30 52 2 49 50
M  V30 53 1 50 51
M  V30 54 2 51 52
M  V30 55 1 52 53
M  V30 56 2 53 54
M  V30 57 2 48 55
M  V30 58 1 55 56
M  V30 59 1 56 57
M  V30 60 2 57 58
M  V30 61 1 58 59
M  V30 62 2 59 60
M  V30 63 1 60 61
M  V30 64 2 61 62
M  V30 65 2 56 63
M  V30 66 2 45 42
M  V30 67 1 63 46
M  V30 68 1 54 49
M  V30 69 1 62 57
M  V30 70 1 41 64
M  V30 71 1 42 65
M  V30 72 1 43 66
M  V30 73 1 44 67
M  V30 74 1 47 68
M  V30 75 1 50 69
M  V30 76 1 51 70
M  V30 77 1 53 71
M  V30 78 1 54 72
M  V30 79 1 55 73
M  V30 80 1 58 74
M  V30 81 1 59 75
M  V30 82 1 61 76
M  V30 83 1 62 77
M  V30 84 1 63 78
M  V30 85 2 79 80
M  V30 86 1 80 81
M  V30 87 1 79 82
M  V30 88 2 82 83
M  V30 89 1 83 84
M  V30 90 1 84 85
M  V30 91 2 85 86
M  V30 92 1 86 87
M  V30 93 1 87 88
M  V30 94 2 88 89
M  V30 95 1 89 90
M  V30 96 2 90 91
M  V30 97 1 91 92
M  V30 98 2 92 93
M  V30 99 2 87 94
M  V30 100 1 94 95
M  V30 101 1 95 96
M  V30 102 2 96 97
M  V30 103 1 97 98
M  V30 104 2 98 99
M  V30 105 1 99 100
M  V30 106 2 100 101
M  V30 107 2 95 102
M  V30 108 2 84 81
M  V30 109 1 102 85
M  V30 110 1 93 88
M  V30 111 1 101 96
M  V30 112 1 80 103
M  V30 113 1 81 104
M  V30 114 1 82 105
M  V30 115 1 83 106
M  V30 116 1 86 107
M  V30 117 1 89 108
M  V30 118 1 90 109
M  V30 119 1 92 110
M  V30 120 1 93 111
M  V30 121 1 94 112
M  V30 122 1 97 113
M  V30 123 1 98 114
M  V30 124 1 100 115
M  V30 125 1 101 116
M  V30 126 1 102 117
M  V30 127 2 118 119
M  V30 128 1 119 120
M  V30 129 1 118 121
M  V30 130 2 121 122
M  V30 131 1 122 123
M  V30 132 1 123 124
M  V30 133 2 124 125
M  V30 134 1 125 126
M  V30 135 1 126 127
M  V30 136 2 127 128
M  V30 137 1 128 129
M  V30 138 2 129 130
M  V30 139 1 130 131
M  V30 140 2 131 132
M  V30 141 2 126 133
M  V30 142 1 133 134
M  V30 143 1 134 135
M  V30 144 2 135 136
M  V30 145 1 136 137
M  V30 146 2 137 138
M  V30 147 1 138 139
M  V30 148 2 139 140
M  V30 149 2 134 141
M  V30 150 2 123 120
M  V30 151 1 141 124
M  V30 152 1 132 127
M  V30 153 1 140 135
M  V30 154 1 119 142
M  V30 155 1 120 143
M  V30 156 1 121 144
M  V30 157 1 122 145
M  V30 158 1 125 146
M  V30 159 1 128 147
M  V30 160 1 129 148
M  V30 161 1 131 149
M  V30 162 1 132 150
M  V30 163 1 133 151
M  V30 164 1 136 152
M  V30 165 1 137 153
M  V30 166 1 139 154
M  V30 167 1 140 155
M  V30 168 1 141 156
M  V30 169 2 158 159
M  V30 170 1 159 160
M  V30 171 2 160 161
M  V30 172 1 161 162
M  V30 173 2 162 163
M  V30 174 1 163 164
M  V30 175 1 163 165
M  V30 176 2 165 166
M  V30 177 1 166 160
M  V30 178 1 159 167
M  V30 179 1 161 168
M  V30 180 1 162 169
M  V30 181 1 164 170
M  V30 182 1 164 171
M  V30 183 1 164 172
M  V30 184 1 165 173
M  V30 185 2 174 175
M  V30 186 1 175 176
M  V30 187 2 176 177
M  V30 188 1 177 178
M  V30 189 2 178 179
M  V30 190 1 179 180
M  V30 191 1 179 181
M  V30 192 2 181 182
M  V30 193 1 182 176
M  V30 194 1 175 183
M  V30 195 1 177 184
M  V30 196 1 178 185
M  V30 197 1 180 186
M  V30 198 1 180 187
M  V30 199 1 180 188
M  V30 200 1 181 189
M  V30 201 2 190 191
M  V30 202 1 191 192
M  V30 203 2 192 193
M  V30 204 1 193 194
M  V30 205 2 194 195
M  V30 206 1 195 196
M  V30 207 1 195 197
M  V30 208 2 197 198
M  V30 209 1 198 192
M  V30 210 1 191 199
M  V30 211 1 193 200
M  V30 212 1 194 201
M  V30 213 1 196 202
M  V30 214 1 196 203
M  V30 215 1 196 204
M  V30 216 1 197 205
M  V30 217 9 158 157
M  V30 218 9 166 157
M  V30 219 9 190 157
M  V30 220 9 198 157
M  V30 221 9 174 157
M  V30 222 9 182 157
M  V30 223 2 207 208
M  V30 224 1 208 209
M  V30 225 2 209 210
M  V30 226 1 210 211
M  V30 227 2 211 212
M  V30 228 1 212 213
M  V30 229 1 212 214
M  V30 230 2 214 215
M  V30 231 1 215 209
M  V30 232 1 208 216
M  V30 233 1 210 217
M  V30 234 1 211 218
M  V30 235 1 213 219
M  V30 236 1 213 220
M  V30 237 1 213 221
M  V30 238 1 214 222
M  V30 239 2 223 224
M  V30 240 1 224 225
M  V30 241 2 225 226
M  V30 242 1 226 227
M  V30 243 2 227 228
M  V30 244 1 228 229
M  V30 245 1 228 230
M  V30 246 2 230 231
M  V30 247 1 231 225
M  V30 248 1 224 232
M  V30 249 1 226 233
M  V30 250 1 227 234
M  V30 251 1 229 235
M  V30 252 1 229 236
M  V30 253 1 229 237
M  V30 254 1 230 238
M  V30 255 2 239 240
M  V30 256 1 240 241
M  V30 257 2 241 242
M  V30 258 1 242 243
M  V30 259 2 243 244
M  V30 260 1 244 245
M  V30 261 1 244 246
M  V30 262 2 246 247
M  V30 263 1 247 241
M  V30 264 1 240 248
M  V30 265 1 242 249
M  V30 266 1 243 250
M  V30 267 1 245 251
M  V30 268 1 245 252
M  V30 269 1 245 253
M  V30 270 1 246 254
M  V30 271 9 207 206
M  V30 272 9 215 206
M  V30 273 9 239 206
M  V30 274 9 247 206
M  V30 275 9 223 206
M  V30 276 9 231 206
M  V30 277 2 256 257
M  V30 278 1 257 258
M  V30 279 2 258 259
M  V30 280 1 259 260
M  V30 281 2 260 261
M  V30 282 1 261 262
M  V30 283 1 261 263
M  V30 284 2 263 264
M  V30 285 1 264 258
M  V30 286 1 257 265
M  V30 287 1 259 266
M  V30 288 1 260 267
M  V30 289 1 262 268
M  V30 290 1 262 269
M  V30 291 1 262 270
M  V30 292 1 263 271
M  V30 293 2 272 273
M  V30 294 1 273 274
M  V30 295 2 274 275
M  V30 296 1 275 276
M  V30 297 2 276 277
M  V30 298 1 277 278
M  V30 299 1 277 279
M  V30 300 2 279 280
M  V30 301 1 280 274
M  V30 302 1 273 281
M  V30 303 1 275 282
M  V30 304 1 276 283
M  V30 305 1 278 284
M  V30 306 1 278 285
M  V30 307 1 278 286
M  V30 308 1 279 287
M  V30 309 2 288 289
M  V30 310 1 289 290
M  V30 311 2 290 291
M  V30 312 1 291 292
M  V30 313 2 292 293
M  V30 314 1 293 294
M  V30 315 1 293 295
M  V30 316 2 295 296
M  V30 317 1 296 290
M  V30 318 1 289 297
M  V30 319 1 291 298
M  V30 320 1 292 299
M  V30 321 1 294 300
M  V30 322 1 294 301
M  V30 323 1 294 302
M  V30 324 1 295 303
M  V30 325 9 256 255
M  V30 326 9 264 255
M  V30 327 9 288 255
M  V30 328 9 296 255
M  V30 329 9 272 255
M  V30 330 9 280 255
M  V30 331 2 305 306
M  V30 332 1 306 307
M  V30 333 2 307 308
M  V30 334 1 308 309
M  V30 335 2 309 310
M  V30 336 1 310 311
M  V30 337 1 310 312
M  V30 338 2 312 313
M  V30 339 1 313 307
M  V30 340 1 306 314
M  V30 341 1 308 315
M  V30 342 1 309 316
M  V30 343 1 311 317
M  V30 344 1 311 318
M  V30 345 1 311 319
M  V30 346 1 312 320
M  V30 347 2 321 322
M  V30 348 1 322 323
M  V30 349 2 323 324
M  V30 350 1 324 325
M  V30 351 2 325 326
M  V30 352 1 326 327
M  V30 353 1 326 328
M  V30 354 2 328 329
M  V30 355 1 329 323
M  V30 356 1 322 330
M  V30 357 1 324 331
M  V30 358 1 325 332
M  V30 359 1 327 333
M  V30 360 1 327 334
M  V30 361 1 327 335
M  V30 362 1 328 336
M  V30 363 2 337 338
M  V30 364 1 338 339
M  V30 365 2 339 340
M  V30 366 1 340 341
M  V30 367 2 341 342
M  V30 368 1 342 343
M  V30 369 1 342 344
M  V30 370 2 344 345
M  V30 371 1 345 339
M  V30 372 1 338 346
M  V30 373 1 340 347
M  V30 374 1 341 348
M  V30 375 1 343 349
M  V30 376 1 343 350
M  V30 377 1 343 351
M  V30 378 1 344 352
M  V30 379 9 305 304
M  V30 380 9 313 304
M  V30 381 9 337 304
M  V30 382 9 345 304
M  V30 383 9 321 304
M  V30 384 9 329 304
M  V30 385 1 1 158
M  V30 386 1 40 190
M  V30 387 1 79 174
M  V30 388 1 21 207
M  V30 389 1 52 223
M  V30 390 1 118 239
M  V30 391 1 13 256
M  V30 392 1 99 288
M  V30 393 1 130 272
M  V30 394 1 60 305
M  V30 395 1 91 321
M  V30 396 1 138 337
M  V30 END BOND
M  V30 END CTAB
M  END

$$$$
