
     RDKit          3D

  0  0  0  0  0  0  0  0  0  0999 V3000
M  V30 BEGIN CTAB
M  V30 COUNTS 352 396 0 0 0
M  V30 BEGIN ATOM
M  V30 1 C -0.5547 -2.2787 6.7771 0
M  V30 2 C 0.7634 -2.6422 6.4363 0
M  V30 3 C 1.0098 -3.4419 5.2861 0
M  V30 4 C -1.5853 -2.8321 5.9785 0
M  V30 5 C -1.3048 -3.5595 4.7705 0
M  V30 6 C 0.0279 -3.6694 4.3307 0
M  V30 7 C 0.3126 -4.2663 3.0279 0
M  V30 8 C 1.5882 -4.7970 2.6564 0
M  V30 9 C 1.7297 -5.4324 1.3622 0
M  V30 10 C 2.9706 -5.6665 0.7425 0
M  V30 11 C 4.1814 -5.8766 1.4492 0
M  V30 12 C 5.3987 -6.0541 0.8061 0
M  V30 13 C 5.5004 -5.9428 -0.6158 0
M  V30 14 C 4.3259 -5.7694 -1.3093 0
M  V30 15 C 3.0610 -5.7307 -0.6930 0
M  V30 16 C 0.5562 -5.5624 0.5607 0
M  V30 17 C -0.6212 -4.9301 0.8480 0
M  V30 18 C -1.7187 -5.0825 -0.0705 0
M  V30 19 C -1.4152 -5.1146 -1.4964 0
M  V30 20 C -2.4834 -5.2270 -2.4224 0
M  V30 21 C -3.8601 -5.3171 -1.9455 0
M  V30 22 C -4.0847 -5.3056 -0.5795 0
M  V30 23 C -3.0701 -5.1812 0.3109 0
M  V30 24 C -0.7135 -4.2929 2.0379 0
M  V30 25 H 1.5753 -2.4002 7.1061 0
M  V30 26 H 2.0337 -3.7374 5.1867 0
M  V30 27 H -2.6709 -2.6806 6.0757 0
M  V30 28 H -2.1448 -3.7661 4.1781 0
M  V30 29 H 2.4381 -4.5761 3.2459 0
M  V30 30 H 4.1111 -6.0611 2.5238 0
M  V30 31 H 6.2348 -6.0654 1.5024 0
M  V30 32 H 4.4126 -5.8264 -2.3578 0
M  V30 33 H 2.2310 -5.4897 -1.3177 0
M  V30 34 H 0.5614 -6.2419 -0.2942 0
M  V30 35 H -0.4133 -4.9811 -1.9372 0
M  V30 36 H -2.2285 -5.1230 -3.4416 0
M  V30 37 H -5.0935 -5.4241 -0.1837 0
M  V30 38 H -3.2290 -5.3257 1.4239 0
M  V30 39 H -1.6884 -3.8584 2.1684 0
M  V30 40 C -0.4326 1.5836 6.2413 0
M  V30 41 C -0.0232 0.5191 5.3928 0
M  V30 42 C -0.6562 0.3461 4.1379 0
M  V30 43 C -1.2476 2.6048 5.6597 0
M  V30 44 C -1.8080 2.4905 4.4035 0
M  V30 45 C -1.6053 1.3223 3.7139 0
M  V30 46 C -2.1712 1.1255 2.4894 0
M  V30 47 C -3.0684 0.1448 2.2899 0
M  V30 48 C -3.9816 0.1216 1.1822 0
M  V30 49 C -4.9686 -0.8973 1.0201 0
M  V30 50 C -6.0472 -0.6821 0.1427 0
M  V30 51 C -6.9133 -1.7342 -0.1422 0
M  V30 52 C -6.7783 -3.0098 0.4268 0
M  V30 53 C -5.9049 -3.1189 1.5078 0
M  V30 54 C -4.9436 -2.0988 1.7732 0
M  V30 55 C -3.7894 1.2561 0.3017 0
M  V30 56 C -2.6996 2.1743 0.4356 0
M  V30 57 C -2.5283 3.3297 -0.3616 0
M  V30 58 C -3.1036 3.3791 -1.6421 0
M  V30 59 C -2.9583 4.5460 -2.4574 0
M  V30 60 C -2.1991 5.6515 -1.9534 0
M  V30 61 C -1.7144 5.6266 -0.6925 0
M  V30 62 C -1.9047 4.5033 0.1056 0
M  V30 63 C -1.8769 2.0279 1.4893 0
M  V30 64 H 0.7058 -0.1929 5.7229 0
M  V30 65 H -0.3367 -0.4983 3.5243 0
M  V30 66 H -1.5835 3.4400 6.2789 0
M  V30 67 H -2.3863 3.3471 4.0021 0
M  V30 68 H -3.0393 -0.6405 3.0281 0
M  V30 69 H -6.1952 0.2609 -0.4026 0
M  V30 70 H -7.7971 -1.5884 -0.7839 0
M  V30 71 H -5.6815 -4.0852 1.8945 0
M  V30 72 H -4.1744 -2.2971 2.5263 0
M  V30 73 H -4.5227 1.4528 -0.4323 0
M  V30 74 H -3.6049 2.5388 -2.0530 0
M  V30 75 H -3.2746 4.5267 -3.4985 0
M  V30 76 H -1.2460 6.5278 -0.2367 0
M  V30 77 H -1.6330 4.6714 1.1254 0
M  V30 78 H -0.9646 2.5860 1.6194 0
M  V30 79 C 3.1695 -0.0131 7.2829 0
M  V30 80 C 3.1958 1.3364 6.9778 0
M  V30 81 C 3.4581 1.7430 5.5998 0
M  V30 82 C 3.5888 -0.9138 6.3167 0
M  V30 83 C 3.7518 -0.5623 4.9302 0
M  V30 84 C 3.7536 0.8401 4.5251 0
M  V30 85 C 3.8734 1.2348 3.1173 0
M  V30 86 C 3.5101 2.5432 2.6503 0
M  V30 87 C 3.1869 2.7596 1.2478 0
M  V30 88 C 2.6987 4.0399 0.7049 0
M  V30 89 C 1.9088 4.1022 -0.4746 0
M  V30 90 C 1.4396 5.3107 -0.9380 0
M  V30 91 C 1.6719 6.4998 -0.2290 0
M  V30 92 C 2.6067 6.5202 0.7810 0
M  V30 93 C 3.0482 5.2919 1.3066 0
M  V30 94 C 3.5788 1.7366 0.3618 0
M  V30 95 C 4.2458 0.5293 0.7934 0
M  V30 96 C 4.9587 -0.2450 -0.0980 0
M  V30 97 C 5.7819 0.4737 -0.9888 0
M  V30 98 C 6.6659 -0.2023 -1.8965 0
M  V30 99 C 6.6919 -1.6561 -1.8814 0
M  V30 100 C 5.8011 -2.3112 -0.9882 0
M  V30 101 C 4.9181 -1.6569 -0.1001 0
M  V30 102 C 4.3476 0.2606 2.1854 0
M  V30 103 H 2.6954 1.9685 7.6849 0
M  V30 104 H 3.4421 2.8069 5.4470 0
M  V30 105 H 3.6493 -2.0295 6.5260 0
M  V30 106 H 3.9005 -1.3918 4.2222 0
M  V30 107 H 3.3220 3.3590 3.3550 0
M  V30 108 H 1.5367 3.1780 -0.8974 0
M  V30 109 H 0.5998 5.2955 -1.5728 0
M  V30 110 H 2.8097 7.4659 1.2580 0
M  V30 111 H 3.7648 5.2800 2.1304 0
M  V30 112 H 3.3923 1.9198 -0.6998 0
M  V30 113 H 5.8580 1.5871 -1.0858 0
M  V30 114 H 7.2821 0.4207 -2.5268 0
M  V30 115 H 5.7262 -3.3631 -1.0138 0
M  V30 116 H 4.0211 -2.1267 0.3920 0
M  V30 117 H 4.7913 -0.6421 2.4924 0
M  V30 118 C -5.1791 -1.5468 -3.1198 0
M  V30 119 C -4.1026 -2.0632 -2.3739 0
M  V30 120 C -2.8247 -1.5193 -2.4838 0
M  V30 121 C -4.9439 -0.4964 -4.0756 0
M  V30 122 C -3.6569 -0.0957 -4.3504 0
M  V30 123 C -2.5982 -0.6594 -3.5839 0
M  V30 124 C -1.2547 -0.3165 -3.8656 0
M  V30 125 C -0.2847 -1.3466 -4.0837 0
M  V30 126 C 1.0341 -0.9674 -4.4219 0
M  V30 127 C 2.1064 -1.8937 -4.5094 0
M  V30 128 C 1.8430 -3.3051 -4.5569 0
M  V30 129 C 2.8698 -4.2269 -4.5323 0
M  V30 130 C 4.2120 -3.8039 -4.3202 0
M  V30 131 C 4.5131 -2.4484 -4.2161 0
M  V30 132 C 3.4971 -1.4836 -4.2974 0
M  V30 133 C 1.2620 0.3593 -4.7475 0
M  V30 134 C 0.3190 1.3691 -4.5403 0
M  V30 135 C 0.6425 2.7608 -4.7135 0
M  V30 136 C 1.9353 3.1903 -4.3761 0
M  V30 137 C 2.1748 4.5304 -3.9859 0
M  V30 138 C 1.1978 5.4991 -4.2174 0
M  V30 139 C -0.0699 5.1008 -4.6504 0
M  V30 140 C -0.3543 3.7330 -4.8891 0
M  V30 141 C -0.9586 1.0228 -4.1442 0
M  V30 142 H -4.4370 -2.7890 -1.6121 0
M  V30 143 H -2.0115 -1.9325 -1.8540 0
M  V30 144 H -5.7630 -0.0532 -4.6420 0
M  V30 145 H -3.4688 0.5917 -5.2165 0
M  V30 146 H -0.5790 -2.4360 -3.9497 0
M  V30 147 H 0.8838 -3.7756 -4.6493 0
M  V30 148 H 2.6219 -5.3417 -4.4953 0
M  V30 149 H 5.3856 -2.0021 -3.9312 0
M  V30 150 H 3.7263 -0.4633 -4.1339 0
M  V30 151 H 2.1751 0.6538 -5.1260 0
M  V30 152 H 2.7696 2.5142 -4.3703 0
M  V30 153 H 3.1746 4.8228 -3.6431 0
M  V30 154 H -0.7998 5.8591 -5.0019 0
M  V30 155 H -1.3339 3.4798 -5.2569 0
M  V30 156 H -1.7368 1.7442 -3.9964 0
M  V30 157 Zn 0.3808 0.1242 8.8928 0 CHG=2
M  V30 158 N -0.8036 -1.4320 7.8440 0
M  V30 159 C -2.0562 -1.3215 8.4045 0
M  V30 160 C -2.4535 -0.2558 9.2163 0
M  V30 161 C -3.7754 -0.1702 9.6166 0
M  V30 162 C -4.1986 0.9026 10.4486 0
M  V30 163 C -3.2442 1.8934 10.7942 0
M  V30 164 C -3.5827 2.9955 11.6874 0
M  V30 165 C -1.9510 1.7584 10.3485 0
M  V30 166 N -1.5716 0.6588 9.5866 0
M  V30 167 H -2.8407 -2.0568 8.2181 0
M  V30 168 H -4.4929 -0.9310 9.3801 0
M  V30 169 H -5.2163 0.9397 10.8063 0
M  V30 170 H -3.2342 2.7555 12.6945 0
M  V30 171 H -4.6453 3.2044 11.6526 0
M  V30 172 H -3.0101 3.8478 11.3023 0
M  V30 173 H -1.2162 2.4646 10.7037 0
M  V30 174 N 2.4906 -0.4486 8.4013 0
M  V30 175 C 2.8356 -1.4961 9.2069 0
M  V30 176 C 2.0277 -1.8143 10.3206 0
M  V30 177 C 2.4937 -2.6591 11.3276 0
M  V30 178 C 1.7429 -2.8379 12.4939 0
M  V30 179 C 0.4106 -2.2330 12.5807 0
M  V30 180 C -0.5713 -2.7490 13.6117 0
M  V30 181 C -0.0700 -1.5325 11.4985 0
M  V30 182 N 0.7859 -1.2681 10.4704 0
M  V30 183 H 3.8441 -1.9203 9.1438 0
M  V30 184 H 3.4652 -3.1158 11.2331 0
M  V30 185 H 2.0657 -3.5422 13.2993 0
M  V30 186 H -0.0994 -3.5329 14.1998 0
M  V30 187 H -1.5012 -3.1359 13.1073 0
M  V30 188 H -0.9164 -1.8775 14.2326 0
M  V30 189 H -1.0732 -1.1781 11.4139 0
M  V30 190 N 0.0756 1.7140 7.4879 0
M  V30 191 C 0.4490 2.8959 7.9592 0
M  V30 192 C 0.9037 2.9445 9.3036 0
M  V30 193 C 1.0461 4.2071 9.9232 0
M  V30 194 C 1.4427 4.2307 11.2654 0
M  V30 195 C 1.7361 3.0783 11.9972 0
M  V30 196 C 2.1977 3.2180 13.3860 0
M  V30 197 C 1.4152 1.8444 11.3942 0
M  V30 198 N 1.1192 1.8214 10.0489 0
M  V30 199 H 0.3200 3.8295 7.4100 0
M  V30 200 H 0.8998 5.1540 9.4105 0
M  V30 201 H 1.5470 5.1772 11.7301 0
M  V30 202 H 2.4798 4.2693 13.7101 0
M  V30 203 H 3.0967 2.6132 13.4977 0
M  V30 204 H 1.4096 2.7426 14.0730 0
M  V30 205 H 1.4313 0.9289 11.9548 0
M  V30 206 Zn -7.0907 -4.2416 -2.5738 0 CHG=2
M  V30 207 N -4.9455 -5.0727 -2.7962 0
M  V30 208 C -4.9297 -5.2166 -4.1784 0
M  V30 209 C -6.0232 -4.8861 -5.0631 0
M  V30 210 C -5.8485 -5.1260 -6.4114 0
M  V30 211 C -6.8503 -4.9611 -7.3415 0
M  V30 212 C -8.0618 -4.5340 -6.9192 0
M  V30 213 C -8.9886 -3.8779 -7.8783 0
M  V30 214 C -8.2898 -4.3546 -5.5203 0
M  V30 215 N -7.2345 -4.5290 -4.6212 0
M  V30 216 H -4.0850 -5.7281 -4.6514 0
M  V30 217 H -4.8784 -5.4178 -6.8115 0
M  V30 218 H -6.6660 -4.9463 -8.4286 0
M  V30 219 H -9.8336 -4.5641 -8.0845 0
M  V30 220 H -8.5209 -3.5161 -8.8190 0
M  V30 221 H -9.3860 -3.0014 -7.4045 0
M  V30 222 H -9.2675 -3.9416 -5.2114 0
M  V30 223 N -7.1491 -4.1014 -0.3647 0
M  V30 224 C -7.4421 -5.3518 0.1018 0
M  V30 225 C -7.9206 -6.3944 -0.7240 0
M  V30 226 C -8.5631 -7.5108 -0.1408 0
M  V30 227 C -9.3821 -8.3419 -1.0176 0
M  V30 228 C -9.4290 -7.9423 -2.4460 0
M  V30 229 C -10.3064 -8.7439 -3.4235 0
M  V30 230 C -8.5531 -6.9223 -2.9542 0
M  V30 231 N -7.8966 -6.1693 -2.0622 0
M  V30 232 H -7.4933 -5.5354 1.1359 0
M  V30 233 H -8.5988 -7.7351 0.9072 0
M  V30 234 H -9.8822 -9.2079 -0.5978 0
M  V30 235 H -9.7920 -8.8165 -4.4055 0
M  V30 236 H -11.2937 -8.2703 -3.6587 0
M  V30 237 H -10.3984 -9.8006 -2.9800 0
M  V30 238 H -8.5473 -6.6841 -4.0100 0
M  V30 239 N -6.4125 -2.1500 -3.0809 0
M  V30 240 C -7.6264 -1.5689 -3.3709 0
M  V30 241 C -8.8935 -2.2176 -3.1428 0
M  V30 242 C -10.0340 -1.4473 -3.3515 0
M  V30 243 C -11.3155 -1.9888 -3.3051 0
M  V30 244 C -11.5479 -3.2581 -2.8258 0
M  V30 245 C -13.0055 -3.7341 -2.7258 0
M  V30 246 C -10.3981 -4.0491 -2.6105 0
M  V30 247 N -9.1228 -3.5145 -2.7652 0
M  V30 248 H -7.6735 -0.4807 -3.5573 0
M  V30 249 H -9.9603 -0.4147 -3.6908 0
M  V30 250 H -12.1631 -1.3991 -3.6540 0
M  V30 251 H -12.9757 -4.7007 -2.1915 0
M  V30 252 H -13.4101 -3.8381 -3.7645 0
M  V30 253 H -13.5214 -2.9650 -2.0931 0
M  V30 254 H -10.4761 -5.0652 -2.1641 0
M  V30 255 Zn 7.3692 -4.7635 -3.3245 0 CHG=2
M  V30 256 N 6.7125 -5.7085 -1.2073 0
M  V30 257 C 7.9146 -6.0261 -0.5807 0
M  V30 258 C 9.1610 -5.7358 -1.2313 0
M  V30 259 C 10.3330 -6.2657 -0.7248 0
M  V30 260 C 11.5817 -5.9946 -1.2396 0
M  V30 261 C 11.6255 -5.1668 -2.3496 0
M  V30 262 C 12.9752 -5.0639 -2.9797 0
M  V30 263 C 10.4619 -4.6483 -2.9312 0
M  V30 264 N 9.2712 -4.9950 -2.3732 0
M  V30 265 H 7.9300 -6.4841 0.3944 0
M  V30 266 H 10.3028 -6.9309 0.1002 0
M  V30 267 H 12.4695 -6.4435 -0.8340 0
M  V30 268 H 12.9231 -4.2775 -3.7665 0
M  V30 269 H 13.2781 -6.0402 -3.3880 0
M  V30 270 H 13.6789 -4.7862 -2.1909 0
M  V30 271 H 10.4841 -4.1472 -3.8767 0
M  V30 272 N 5.2296 -4.7044 -4.2705 0
M  V30 273 C 5.1522 -5.9702 -4.8007 0
M  V30 274 C 6.1598 -6.9595 -4.6584 0
M  V30 275 C 5.9301 -8.2192 -5.1850 0
M  V30 276 C 6.9958 -9.0700 -5.4272 0
M  V30 277 C 8.3142 -8.5769 -5.0972 0
M  V30 278 C 9.5381 -9.4936 -5.2452 0
M  V30 279 C 8.4296 -7.3638 -4.3692 0
M  V30 280 N 7.3409 -6.6472 -4.0799 0
M  V30 281 H 4.3435 -6.2456 -5.4545 0
M  V30 282 H 4.9617 -8.3637 -5.6272 0
M  V30 283 H 6.8576 -10.0324 -5.9575 0
M  V30 284 H 9.2616 -10.2705 -6.0380 0
M  V30 285 H 9.7368 -10.0561 -4.2804 0
M  V30 286 H 10.4596 -8.9851 -5.4895 0
M  V30 287 H 9.3992 -7.0233 -4.0171 0
M  V30 288 N 7.3616 -2.4396 -2.8094 0
M  V30 289 C 8.1102 -1.9522 -3.8914 0
M  V30 290 C 8.5025 -2.7323 -5.0064 0
M  V30 291 C 9.1777 -2.1077 -6.0893 0
M  V30 292 C 9.6134 -2.8539 -7.1913 0
M  V30 293 C 9.2651 -4.1999 -7.2560 0
M  V30 294 C 9.4993 -4.9724 -8.5084 0
M  V30 295 C 8.4152 -4.6866 -6.2755 0
M  V30 296 N 8.1472 -4.0117 -5.1311 0
M  V30 297 H 8.4198 -0.9052 -3.9113 0
M  V30 298 H 9.3691 -1.0396 -6.1093 0
M  V30 299 H 10.2249 -2.3835 -7.9615 0
M  V30 300 H 9.2616 -4.3229 -9.4099 0
M  V30 301 H 8.9451 -5.9301 -8.5342 0
M  V30 302 H 10.5389 -5.3393 -8.5549 0
M  V30 303 H 7.9223 -5.6547 -6.4079 0
M  V30 304 Zn -0.0790 8.1358 -2.5404 0 CHG=2
M  V30 305 N -1.9616 6.8076 -2.6650 0
M  V30 306 C -2.7783 7.2293 -3.6259 0
M  V30 307 C -2.4353 8.4266 -4.3083 0
M  V30 308 C -3.3579 8.9304 -5.2472 0
M  V30 309 C -2.8863 9.8451 -6.1993 0
M  V30 310 C -1.5410 10.2544 -6.1947 0
M  V30 311 C -0.9752 11.1305 -7.2164 0
M  V30 312 C -0.6537 9.7163 -5.2143 0
M  V30 313 N -1.1254 8.8672 -4.2860 0
M  V30 314 H -3.7768 6.8194 -3.8595 0
M  V30 315 H -4.3944 8.6224 -5.3190 0
M  V30 316 H -3.5641 10.3257 -6.9147 0
M  V30 317 H -0.8363 10.6283 -8.1617 0
M  V30 318 H 0.0926 11.5035 -6.9477 0
M  V30 319 H -1.6627 12.0010 -7.3383 0
M  V30 320 H 0.3967 10.0812 -5.2719 0
M  V30 321 N 0.8777 7.5807 -0.5581 0
M  V30 322 C 0.5315 8.6401 0.2432 0
M  V30 323 C -0.4919 9.5503 -0.0669 0
M  V30 324 C -0.9033 10.4707 0.9318 0
M  V30 325 C -1.7915 11.5066 0.5445 0
M  V30 326 C -2.3975 11.5489 -0.7190 0
M  V30 327 C -3.4262 12.5398 -1.1086 0
M  V30 328 C -2.1190 10.5184 -1.5811 0
M  V30 329 N -1.1429 9.5751 -1.2727 0
M  V30 330 H 0.9178 8.6863 1.2614 0
M  V30 331 H -0.4405 10.4576 1.9312 0
M  V30 332 H -2.0226 12.2849 1.2553 0
M  V30 333 H -3.5429 12.6712 -2.2174 0
M  V30 334 H -3.1623 13.5285 -0.8294 0
M  V30 335 H -4.4377 12.3062 -0.6762 0
M  V30 336 H -2.4193 10.6337 -2.6300 0
M  V30 337 N 1.3181 6.8196 -3.7854 0
M  V30 338 C 2.5451 7.4568 -3.7826 0
M  V30 339 C 2.6990 8.7762 -3.3604 0
M  V30 340 C 3.9317 9.4557 -3.5807 0
M  V30 341 C 3.9663 10.8183 -3.1577 0
M  V30 342 C 2.8626 11.4804 -2.7122 0
M  V30 343 C 2.9963 12.9183 -2.3610 0
M  V30 344 C 1.7017 10.7764 -2.5071 0
M  V30 345 N 1.6745 9.4337 -2.7978 0
M  V30 346 H 3.3655 7.0170 -4.3500 0
M  V30 347 H 4.7390 9.0195 -4.1155 0
M  V30 348 H 4.8971 11.3355 -3.3294 0
M  V30 349 H 3.7592 13.0027 -1.5901 0
M  V30 350 H 2.0405 13.3888 -2.0926 0
M  V30 351 H 3.4118 13.4898 -3.2422 0
M  V30 352 H 0.8284 11.2638 -2.1120 0
M  V30 END ATOM
M  V30 BEGIN BOND
M  V30 1 2 1 2
M  V30 2 1 2 3
M  V30 3 1 1 4
M  V30 4 2 4 5
M  V30 5 1 5 6
M  V30 6 1 6 7
M  V30 7 2 7 8
M  V30 8 1 8 9
M  V30 9 1 9 10
M  V30 10 2 10 11
M  V30 11 1 11 12
M  V30 12 2 12 13
M  V30 13 1 13 14
M  V30 14 2 14 15
M  V30 15 2 9 16
M  V30 16 1 16 17
M  V30 17 1 17 18
M  V30 18 2 18 19
M  V30 19 1 19 20
M  V30 20 2 20 21
M  V30 21 1 21 22
M  V30 22 2 22 23
M  V30 23 2 17 24
M  V30 24 2 6 3
M  V30 25 1 24 7
M  V30 26 1 15 10
M  V30 27 1 23 18
M  V30 28 1 2 25
M  V30 29 1 3 26
M  V30 30 1 4 27
M  V30 31 1 5 28
M  V30 32 1 8 29
M  V30 33 1 11 30
M  V30 34 1 12 31
M  V30 35 1 14 32
M  V30 36 1 15 33
M  V30 37 1 16 34
M  V30 38 1 19 35
M  V30 39 1 20 36
M  V30 40 1 22 37
M  V30 41 1 23 38
M  V30 42 1 24 39
M  V30 43 2 40 41
M  V30 44 1 41 42
M  V30 45 1 40 43
M  V30 46 2 43 44
M  V30 47 1 44 45
M  V30 48 1 45 46
M  V30 49 2 46 47
M  V30 50 1 47 48
M  V30 51 1 48 49
M  V30 52 2 49 50
M  V30 53 1 50 51
M  V30 54 2 51 52
M  V30 55 1 52 53
M  V30 56 2 53 54
M  V30 57 2 48 55
M  V30 58 1 55 56
M  V30 59 1 56 57
M  V30 60 2 57 58
M  V30 61 1 58 59
M  V30 62 2 59 60
M  V30 63 1 60 61
M  V30 64 2 61 62
M  V30 65 2 56 63
M  V30 66 2 45 42
M  V30 67 1 63 46
M  V30 68 1 54 49
M  V30 69 1 62 57
M  V30 70 1 41 64
M  V30 71 1 42 65
M  V30 72 1 43 66
M  V30 73 1 44 67
M  V30 74 1 47 68
M  V30 75 1 50 69
M  V30 76 1 51 70
M  V30 77 1 53 71
M  V30 78 1 54 72
M  V30 79 1 55 73
M  V30 80 1 58 74
M  V30 81 1 59 75
M  V30 82 1 61 76
M  V30 83 1 62 77
M  V30 84 1 63 78
M  V30 85 2 79 80
M  V30 86 1 80 81
M  V30 87 1 79 82
M  V30 88 2 82 83
M  V30 89 1 83 84
M  V30 90 1 84 85
M  V30 91 2 85 86
M  V30 92 1 86 87
M  V30 93 1 87 88
M  V30 94 2 88 89
M  V30 95 1 89 90
M  V30 96 2 90 91
M  V30 97 1 91 92
M  V30 98 2 92 93
M  V30 99 2 87 94
M  V30 100 1 94 95
M  V30 101 1 95 96
M  V30 102 2 96 97
M  V30 103 1 97 98
M  V30 104 2 98 99
M  V30 105 1 99 100
M  V30 106 2 100 101
M  V30 107 2 95 102
M  V30 108 2 84 81
M  V30 109 1 102 85
M  V30 110 1 93 88
M  V30 111 1 101 96
M  V30 112 1 80 103
M  V30 113 1 81 104
M  V30 114 1 82 105
M  V30 115 1 83 106
M  V30 116 1 86 107
M  V30 117 1 89 108
M  V30 118 1 90 109
M  V30 119 1 92 110
M  V30 120 1 93 111
M  V30 121 1 94 112
M  V30 122 1 97 113
M  V30 123 1 98 114
M  V30 124 1 100 115
M  V30 125 1 101 116
M  V30 126 1 102 117
M  V30 127 2 118 119
M  V30 128 1 119 120
M  V30 129 1 118 121
M  V30 130 2 121 122
M  V30 131 1 122 123
M  V30 132 1 123 124
M  V30 133 2 124 125
M  V30 134 1 125 126
M  V30 135 1 126 127
M  V30 136 2 127 128
M  V30 137 1 128 129
M  V30 138 2 129 130
M  V30 139 1 130 131
M  V30 140 2 131 132
M  V30 141 2 126 133
M  V30 142 1 133 134
M  V30 143 1 134 135
M  V30 144 2 135 136
M  V30 145 1 136 137
M  V30 146 2 137 138
M  V30 147 1 138 139
M  V30 148 2 139 140
M  V30 149 2 134 141
M  V30 150 2 123 120
M  V30 151 1 141 124
M  V30 152 1 132 127
M  V30 153 1 140 135
M  V30 154 1 119 142
M  V30 155 1 120 143
M  V30 156 1 121 144
M  V30 157 1 122 145
M  V30 158 1 125 146
M  V30 159 1 128 147
M  V30 160 1 129 148
M  V30 161 1 131 149
M  V30 162 1 132 150
M  V30 163 1 133 151
M  V30 164 1 136 152
M  V30 165 1 137 153
M  V30 166 1 139 154
M  V30 167 1 140 155
M  V30 168 1 141 156
M  V30 169 2 158 159
M  V30 170 1 159 160
M  V30 171 2 160 161
M  V30 172 1 161 162
M  V30 173 2 162 163
M  V30 174 1 163 164
M  V30 175 1 163 165
M  V30 176 2 165 166
M  V30 177 1 166 160
M  V30 178 1 159 167
M  V30 179 1 161 168
M  V30 180 1 162 169
M  V30 181 1 164 170
M  V30 182 1 164 171
M  V30 183 1 164 172
M  V30 184 1 165 173
M  V30 185 2 174 175
M  V30 186 1 175 176
M  V30 187 2 176 177
M  V30 188 1 177 178
M  V30 189 2 178 179
M  V30 190 1 179 180
M  V30 191 1 179 181
M  V30 192 2 181 182
M  V30 193 1 182 176
M  V30 194 1 175 183
M  V30 195 1 177 184
M  V30 196 1 178 185
M  V30 197 1 180 186
M  V30 198 1 180 187
M  V30 199 1 180 188
M  V30 200 1 181 189
M  V30 201 2 190 191
M  V30 202 1 191 192
M  V30 203 2 192 193
M  V30 204 1 193 194
M  V30 205 2 194 195
M  V30 206 1 195 196
M  V30 207 1 195 197
M  V30 208 2 197 198
M  V30 209 1 198 192
M  V30 210 1 191 199
M  V30 211 1 193 200
M  V30 212 1 194 201
M  V30 213 1 196 202
M  V30 214 1 196 203
M  V30 215 1 196 204
M  V30 216 1 197 205
M  V30 217 9 158 157
M  V30 218 9 166 157
M  V30 219 9 190 157
M  V30 220 9 198 157
M  V30 221 9 174 157
M  V30 222 9 182 157
M  V30 223 2 207 208
M  V30 224 1 208 209
M  V30 225 2 209 210
M  V30 226 1 210 211
M  V30 227 2 211 212
M  V30 228 1 212 213
M  V30 229 1 212 214
M  V30 230 2 214 215
M  V30 231 1 215 209
M  V30 232 1 208 216
M  V30 233 1 210 217
M  V30 234 1 211 218
M  V30 235 1 213 219
M  V30 236 1 213 220
M  V30 237 1 213 221
M  V30 238 1 214 222
M  V30 239 2 223 224
M  V30 240 1 224 225
M  V30 241 2 225 226
M  V30 242 1 226 227
M  V30 243 2 227 228
M  V30 244 1 228 229
M  V30 245 1 228 230
M  V30 246 2 230 231
M  V30 247 1 231 225
M  V30 248 1 224 232
M  V30 249 1 226 233
M  V30 250 1 227 234
M  V30 251 1 229 235
M  V30 252 1 229 236
M  V30 253 1 229 237
M  V30 254 1 230 238
M  V30 255 2 239 240
M  V30 256 1 240 241
M  V30 257 2 241 242
M  V30 258 1 242 243
M  V30 259 2 243 244
M  V30 260 1 244 245
M  V30 261 1 244 246
M  V30 262 2 246 247
M  V30 263 1 247 241
M  V30 264 1 240 248
M  V30 265 1 242 249
M  V30 266 1 243 250
M  V30 267 1 245 251
M  V30 268 1 245 252
M  V30 269 1 245 253
M  V30 270 1 246 254
M  V30 271 9 207 206
M  V30 272 9 215 206
M  V30 273 9 239 206
M  V30 274 9 247 206
M  V30 275 9 223 206
M  V30 276 9 231 206
M  V30 277 2 256 257
M  V30 278 1 257 258
M  V30 279 2 258 259
M  V30 280 1 259 260
M  V30 281 2 260 261
M  V30 282 1 261 262
M  V30 283 1 261 263
M  V30 284 2 263 264
M  V30 285 1 264 258
M  V30 286 1 257 265
M  V30 287 1 259 266
M  V30 288 1 260 267
M  V30 289 1 262 268
M  V30 290 1 262 269
M  V30 291 1 262 270
M  V30 292 1 263 271
M  V30 293 2 272 273
M  V30 294 1 273 274
M  V30 295 2 274 275
M  V30 296 1 275 276
M  V30 297 2 276 277
M  V30 298 1 277 278
M  V30 299 1 277 279
M  V30 300 2 279 280
M  V30 301 1 280 274
M  V30 302 1 273 281
M  V30 303 1 275 282
M  V30 304 1 276 283
M  V30 305 1 278 284
M  V30 306 1 278 285
M  V30 307 1 278 286
M  V30 308 1 279 287
M  V30 309 2 288 289
M  V30 310 1 289 290
M  V30 311 2 290 291
M  V30 312 1 291 292
M  V30 313 2 292 293
M  V30 314 1 293 294
M  V30 315 1 293 295
M  V30 316 2 295 296
M  V30 317 1 296 290
M  V30 318 1 289 297
M  V30 319 1 291 298
M  V30 320 1 292 299
M  V30 321 1 294 300
M  V30 322 1 294 301
M  V30 323 1 294 302
M  V30 324 1 295 303
M  V30 325 9 256 255
M  V30 326 9 264 255
M  V30 327 9 288 255
M  V30 328 9 296 255
M  V30 329 9 272 255
M  V30 330 9 280 255
M  V30 331 2 305 306
M  V30 332 1 306 307
M  V30 333 2 307 308
M  V30 334 1 308 309
M  V30 335 2 309 310
M  V30 336 1 310 311
M  V30 337 1 310 312
M  V30 338 2 312 313
M  V30 339 1 313 307
M  V30 340 1 306 314
M  V30 341 1 308 315
M  V30 342 1 309 316
M  V30 343 1 311 317
M  V30 344 1 311 318
M  V30 345 1 311 319
M  V30 346 1 312 320
M  V30 347 2 321 322
M  V30 348 1 322 323
M  V30 349 2 323 324
M  V30 350 1 324 325
M  V30 351 2 325 326
M  V30 352 1 326 327
M  V30 353 1 326 328
M  V30 354 2 328 329
M  V30 355 1 329 323
M  V30 356 1 322 330
M  V30 357 1 324 331
M  V30 358 1 325 332
M  V30 359 1 327 333
M  V30 360 1 327 334
M  V30 361 1 327 335
M  V30 362 1 328 336
M  V30 363 2 337 338
M  V30 364 1 338 339
M  V30 365 2 339 340
M  V30 366 1 340 341
M  V30 367 2 341 342
M  V30 368 1 342 343
M  V30 369 1 342 344
M  V30 370 2 344 345
M  V30 371 1 345 339
M  V30 372 1 338 346
M  V30 373 1 340 347
M  V30 374 1 341 348
M  V30 375 1 343 349
M  V30 376 1 343 350
M  V30 377 1 343 351
M  V30 378 1 344 352
M  V30 379 9 305 304
M  V30 380 9 313 304
M  V30 381 9 337 304
M  V30 382 9 345 304
M  V30 383 9 321 304
M  V30 384 9 329 304
M  V30 385 1 1 158
M  V30 386 1 40 190
M  V30 387 1 79 174
M  V30 388 1 21 207
M  V30 389 1 52 223
M  V30 390 1 118 239
M  V30 391 1 13 256
M  V30 392 1 99 288
M  V30 393 1 130 272
M  V30 394 1 60 305
M  V30 395 1 91 321
M  V30 396 1 138 337
M  V30 END BOND
M  V30 END CTAB
M  END

$$$$
