
     RDKit          3D

  0  0  0  0  0  0  0  0  0  0999 V3000
M  V30 BEGIN CTAB
M  V30 COUNTS 196 228 0 0 0
M  V30 BEGIN ATOM
M  V30 1 C -1.3643 -2.7621 2.6614 0
M  V30 2 C -0.0405 -2.5806 2.3241 0
M  V30 3 C 0.4606 -3.1752 1.1837 0
M  V30 4 C -0.3867 -3.5480 0.1740 0
M  V30 5 C -1.7863 -3.4758 0.3660 0
M  V30 6 C -2.2655 -3.1598 1.6505 0
M  V30 7 H 0.6320 -2.2873 3.0663 0
M  V30 8 H 0.0611 -3.9817 -0.7748 0
M  V30 9 H -3.2588 -3.1626 1.8244 0
M  V30 10 C -2.7078 1.0894 2.9332 0
M  V30 11 C -3.5747 0.0227 2.5234 0
M  V30 12 C -3.9654 -0.0490 1.2264 0
M  V30 13 C -3.7091 1.0395 0.3064 0
M  V30 14 C -2.9723 2.1677 0.7397 0
M  V30 15 C -2.6189 2.2144 2.1130 0
M  V30 16 H -3.7625 -0.7919 3.2008 0
M  V30 17 H -3.9794 1.0585 -0.6960 0
M  V30 18 H -2.2054 3.1398 2.4800 0
M  V30 19 C 1.3063 0.5197 3.1171 0
M  V30 20 C 0.6695 1.7103 2.8299 0
M  V30 21 C 0.8767 2.4381 1.5824 0
M  V30 22 C 1.6996 1.7730 0.6293 0
M  V30 23 C 2.3248 0.5397 0.9703 0
M  V30 24 C 2.2171 -0.0240 2.2378 0
M  V30 25 H 0.0098 2.1397 3.5539 0
M  V30 26 H 1.8661 2.2220 -0.2904 0
M  V30 27 H 2.6003 -0.9806 2.4204 0
M  V30 28 C -1.9871 -0.4213 -2.1071 0
M  V30 29 C -0.9263 -1.3632 -2.1684 0
M  V30 30 C 0.4046 -0.9453 -2.1118 0
M  V30 31 C 0.6495 0.4036 -2.1250 0
M  V30 32 C -0.3611 1.3565 -2.0831 0
M  V30 33 C -1.7046 0.9229 -2.0933 0
M  V30 34 H -1.1759 -2.4013 -2.2200 0
M  V30 35 H 1.6787 0.7141 -2.0788 0
M  V30 36 H -2.4712 1.6248 -2.0218 0
M  V30 37 Zn -1.0996 -0.5575 5.0848 0 CHG=2
M  V30 38 C -3.5152 -0.6049 7.2285 0
M  V30 39 N -2.9505 -1.1161 6.1206 0
M  V30 40 C -3.5492 -2.1598 5.5141 0
M  V30 41 C -2.9353 -2.7410 4.4110 0
M  V30 42 N -1.7624 -2.2724 3.8809 0
M  V30 43 C -4.8048 -2.5958 5.7955 0
M  V30 44 C -5.4833 -2.0274 6.8928 0
M  V30 45 C -4.7799 -1.0946 7.6653 0
M  V30 46 H -3.0608 0.2402 7.7599 0
M  V30 47 H -3.3620 -3.6308 3.9171 0
M  V30 48 H -5.2514 -3.4299 5.2039 0
M  V30 49 H -6.4305 -2.4314 7.1679 0
M  V30 50 H -5.1563 -0.6961 8.5996 0
M  V30 51 C -0.3039 -2.8517 7.1919 0
M  V30 52 N 0.1246 -2.0445 6.1647 0
M  V30 53 C 1.4419 -1.9427 5.8169 0
M  V30 54 C 1.8149 -0.9493 4.8482 0
M  V30 55 N 0.8546 -0.2266 4.1813 0
M  V30 56 C 2.4333 -2.7454 6.4366 0
M  V30 57 C 1.9339 -3.6234 7.4089 0
M  V30 58 C 0.6365 -3.6582 7.7993 0
M  V30 59 H -1.2782 -2.8077 7.5457 0
M  V30 60 H 2.8803 -0.7763 4.6520 0
M  V30 61 H 3.4875 -2.6181 6.2111 0
M  V30 62 H 2.6464 -4.2642 7.9518 0
M  V30 63 H 0.3645 -4.1931 8.6728 0
M  V30 64 C 0.3871 1.2533 7.4634 0
M  V30 65 N -0.5910 1.1042 6.4973 0
M  V30 66 C -1.3252 2.1848 6.1033 0
M  V30 67 C -2.0686 2.1702 4.9076 0
M  V30 68 N -2.1575 1.0641 4.1556 0
M  V30 69 C -1.1293 3.3821 6.7766 0
M  V30 70 C -0.3222 3.5229 7.8877 0
M  V30 71 C 0.5354 2.4524 8.1941 0
M  V30 72 H 1.0461 0.4079 7.5893 0
M  V30 73 H -2.5022 3.1349 4.5982 0
M  V30 74 H -1.7797 4.2300 6.4498 0
M  V30 75 H -0.2719 4.4774 8.4409 0
M  V30 76 H 1.3560 2.4761 8.9164 0
M  V30 77 Zn -4.3795 -2.4083 -1.1459 0 CHG=2
M  V30 78 C -4.9672 -3.7306 -4.0795 0
M  V30 79 N -4.2996 -3.7711 -2.8899 0
M  V30 80 C -3.2527 -4.6877 -2.7217 0
M  V30 81 C -2.4094 -4.5906 -1.6593 0
M  V30 82 N -2.5369 -3.5879 -0.7333 0
M  V30 83 C -2.9302 -5.5853 -3.7062 0
M  V30 84 C -3.6662 -5.6510 -4.8478 0
M  V30 85 C -4.6586 -4.6703 -5.0365 0
M  V30 86 H -5.6655 -2.9370 -4.2660 0
M  V30 87 H -1.5891 -5.3182 -1.6174 0
M  V30 88 H -2.1199 -6.2821 -3.5307 0
M  V30 89 H -3.5712 -6.3888 -5.6157 0
M  V30 90 H -5.2474 -4.7074 -5.9673 0
M  V30 91 C -6.1170 -4.8941 -0.5099 0
M  V30 92 N -5.5592 -3.7714 -0.0688 0
M  V30 93 C -5.8027 -3.2102 1.1606 0
M  V30 94 C -5.2775 -1.9836 1.5525 0
M  V30 95 N -4.4555 -1.2151 0.7645 0
M  V30 96 C -6.5960 -3.9397 2.0688 0
M  V30 97 C -7.1695 -5.1651 1.5830 0
M  V30 98 C -6.9518 -5.6125 0.3069 0
M  V30 99 H -5.9942 -5.2722 -1.5372 0
M  V30 100 H -5.5698 -1.6063 2.5337 0
M  V30 101 H -6.7922 -3.5990 3.0968 0
M  V30 102 H -7.9283 -5.6207 2.1629 0
M  V30 103 H -7.5265 -6.4479 -0.1422 0
M  V30 104 C -7.4296 -1.5147 -1.5132 0
M  V30 105 N -6.1129 -1.2938 -1.7642 0
M  V30 106 C -5.6321 -0.3441 -2.5959 0
M  V30 107 C -4.2687 -0.1712 -2.9233 0
M  V30 108 N -3.2698 -0.8103 -2.2335 0
M  V30 109 C -6.5160 0.4895 -3.2265 0
M  V30 110 C -7.8647 0.2794 -3.0452 0
M  V30 111 C -8.3207 -0.6858 -2.1945 0
M  V30 112 H -7.6985 -2.4556 -1.0292 0
M  V30 113 H -4.0058 0.6609 -3.5913 0
M  V30 114 H -6.1496 1.1165 -4.0016 0
M  V30 115 H -8.5333 0.8757 -3.7146 0
M  V30 116 H -9.3949 -0.8432 -2.0888 0
M  V30 117 Zn 3.0825 -2.2338 -0.6601 0 CHG=2
M  V30 118 C 5.9830 -2.5008 0.6493 0
M  V30 119 N 4.6495 -2.6206 0.7410 0
M  V30 120 C 4.0530 -3.2601 1.7853 0
M  V30 121 C 2.6739 -3.5913 1.7988 0
M  V30 122 N 1.7741 -3.0761 0.9305 0
M  V30 123 C 4.8695 -3.7426 2.8089 0
M  V30 124 C 6.2340 -3.6308 2.6904 0
M  V30 125 C 6.7777 -2.8923 1.7043 0
M  V30 126 H 6.3699 -2.1225 -0.2854 0
M  V30 127 H 2.3245 -4.0647 2.7198 0
M  V30 128 H 4.3830 -4.3645 3.5673 0
M  V30 129 H 6.8843 -4.1098 3.4160 0
M  V30 130 H 7.8528 -2.8728 1.6307 0
M  V30 131 C 3.6218 -5.3303 -1.2432 0
M  V30 132 N 3.0082 -4.1781 -1.6156 0
M  V30 133 C 2.1186 -4.0685 -2.6894 0
M  V30 134 C 1.3628 -2.8871 -2.9649 0
M  V30 135 N 1.4303 -1.8475 -2.1232 0
M  V30 136 C 1.9084 -5.2113 -3.5033 0
M  V30 137 C 2.6617 -6.3578 -3.2181 0
M  V30 138 C 3.4845 -6.4383 -2.1065 0
M  V30 139 H 4.2718 -5.2940 -0.3849 0
M  V30 140 H 0.5773 -2.9249 -3.7269 0
M  V30 141 H 1.3440 -5.0960 -4.4158 0
M  V30 142 H 2.6513 -7.2174 -3.8825 0
M  V30 143 H 3.9465 -7.3692 -1.8277 0
M  V30 144 C 4.9220 -1.8655 -3.4174 0
M  V30 145 N 4.5869 -1.3820 -2.1833 0
M  V30 146 C 4.6919 -0.0376 -1.8754 0
M  V30 147 C 4.0431 0.5511 -0.7765 0
M  V30 148 N 3.1192 -0.0748 0.0248 0
M  V30 149 C 5.2744 0.8186 -2.8245 0
M  V30 150 C 5.7716 0.3026 -4.0199 0
M  V30 151 C 5.5279 -1.0440 -4.3360 0
M  V30 152 H 4.7481 -2.9209 -3.6400 0
M  V30 153 H 4.2489 1.6302 -0.6584 0
M  V30 154 H 5.3537 1.9203 -2.6274 0
M  V30 155 H 6.3573 0.9908 -4.6166 0
M  V30 156 H 5.8593 -1.4186 -5.2921 0
M  V30 157 Zn -0.8929 4.2019 -0.5198 0 CHG=2
M  V30 158 C -1.7950 5.3499 -3.3613 0
M  V30 159 N -2.1636 4.8180 -2.1731 0
M  V30 160 C -3.4572 4.5139 -1.9165 0
M  V30 161 C -3.7972 3.7593 -0.8222 0
M  V30 162 N -2.8078 3.2227 -0.0828 0
M  V30 163 C -4.4445 4.7776 -2.8078 0
M  V30 164 C -4.1665 5.3533 -4.0160 0
M  V30 165 C -2.8320 5.7163 -4.2294 0
M  V30 166 H -0.7994 5.6542 -3.5919 0
M  V30 167 H -4.8359 3.4784 -0.5973 0
M  V30 168 H -5.4363 4.4871 -2.5821 0
M  V30 169 H -4.9569 5.5230 -4.7433 0
M  V30 170 H -2.5780 6.2197 -5.1749 0
M  V30 171 C -2.2041 6.8647 0.3212 0
M  V30 172 N -1.4940 5.7899 0.7210 0
M  V30 173 C -0.9884 5.5523 1.9376 0
M  V30 174 C -0.1994 4.4443 2.2249 0
M  V30 175 N 0.1202 3.5311 1.2908 0
M  V30 176 C -1.2725 6.4928 2.9230 0
M  V30 177 C -1.9245 7.6820 2.5363 0
M  V30 178 C -2.4055 7.8818 1.2640 0
M  V30 179 H -2.6398 6.9439 -0.6574 0
M  V30 180 H 0.2364 4.4014 3.2214 0
M  V30 181 H -0.9459 6.4034 3.9722 0
M  V30 182 H -1.9802 8.4793 3.2679 0
M  V30 183 H -2.9472 8.8107 0.9732 0
M  V30 184 C 1.2581 6.4996 -0.7623 0
M  V30 185 N 0.8058 5.2757 -1.1426 0
M  V30 186 C 1.4731 4.5604 -2.0834 0
M  V30 187 C 1.0411 3.2736 -2.4460 0
M  V30 188 N -0.0366 2.6567 -1.8918 0
M  V30 189 C 2.6919 4.9924 -2.5677 0
M  V30 190 C 3.2874 6.1731 -2.0994 0
M  V30 191 C 2.5633 6.9398 -1.1775 0
M  V30 192 H 0.7001 7.1392 -0.1082 0
M  V30 193 H 1.6939 2.7596 -3.1981 0
M  V30 194 H 3.2155 4.3725 -3.2904 0
M  V30 195 H 4.2641 6.5269 -2.4771 0
M  V30 196 H 2.8393 7.9845 -1.0333 0
M  V30 END ATOM
M  V30 BEGIN BOND
M  V30 1 2 1 2
M  V30 2 1 2 3
M  V30 3 2 3 4
M  V30 4 1 4 5
M  V30 5 2 5 6
M  V30 6 1 6 1
M  V30 7 1 2 7
M  V30 8 1 4 8
M  V30 9 1 6 9
M  V30 10 2 10 11
M  V30 11 1 11 12
M  V30 12 2 12 13
M  V30 13 1 13 14
M  V30 14 2 14 15
M  V30 15 1 15 10
M  V30 16 1 11 16
M  V30 17 1 13 17
M  V30 18 1 15 18
M  V30 19 2 19 20
M  V30 20 1 20 21
M  V30 21 2 21 22
M  V30 22 1 22 23
M  V30 23 2 23 24
M  V30 24 1 24 19
M  V30 25 1 20 25
M  V30 26 1 22 26
M  V30 27 1 24 27
M  V30 28 2 28 29
M  V30 29 1 29 30
M  V30 30 2 30 31
M  V30 31 1 31 32
M  V30 32 2 32 33
M  V30 33 1 33 28
M  V30 34 1 29 34
M  V30 35 1 31 35
M  V30 36 1 33 36
M  V30 37 2 38 39
M  V30 38 1 39 40
M  V30 39 1 40 41
M  V30 40 2 41 42
M  V30 41 2 40 43
M  V30 42 1 43 44
M  V30 43 2 44 45
M  V30 44 1 45 38
M  V30 45 1 38 46
M  V30 46 1 41 47
M  V30 47 1 43 48
M  V30 48 1 44 49
M  V30 49 1 45 50
M  V30 50 2 51 52
M  V30 51 1 52 53
M  V30 52 1 53 54
M  V30 53 2 54 55
M  V30 54 2 53 56
M  V30 55 1 56 57
M  V30 56 2 57 58
M  V30 57 1 58 51
M  V30 58 1 51 59
M  V30 59 1 54 60
M  V30 60 1 56 61
M  V30 61 1 57 62
M  V30 62 1 58 63
M  V30 63 2 64 65
M  V30 64 1 65 66
M  V30 65 1 66 67
M  V30 66 2 67 68
M  V30 67 2 66 69
M  V30 68 1 69 70
M  V30 69 2 70 71
M  V30 70 1 71 64
M  V30 71 1 64 72
M  V30 72 1 67 73
M  V30 73 1 69 74
M  V30 74 1 70 75
M  V30 75 1 71 76
M  V30 76 9 42 37
M  V30 77 9 39 37
M  V30 78 9 68 37
M  V30 79 9 65 37
M  V30 80 9 55 37
M  V30 81 9 52 37
M  V30 82 2 78 79
M  V30 83 1 79 80
M  V30 84 1 80 81
M  V30 85 2 81 82
M  V30 86 2 80 83
M  V30 87 1 83 84
M  V30 88 2 84 85
M  V30 89 1 85 78
M  V30 90 1 78 86
M  V30 91 1 81 87
M  V30 92 1 83 88
M  V30 93 1 84 89
M  V30 94 1 85 90
M  V30 95 2 91 92
M  V30 96 1 92 93
M  V30 97 1 93 94
M  V30 98 2 94 95
M  V30 99 2 93 96
M  V30 100 1 96 97
M  V30 101 2 97 98
M  V30 102 1 98 91
M  V30 103 1 91 99
M  V30 104 1 94 100
M  V30 105 1 96 101
M  V30 106 1 97 102
M  V30 107 1 98 103
M  V30 108 2 104 105
M  V30 109 1 105 106
M  V30 110 1 106 107
M  V30 111 2 107 108
M  V30 112 2 106 109
M  V30 113 1 109 110
M  V30 114 2 110 111
M  V30 115 1 111 104
M  V30 116 1 104 112
M  V30 117 1 107 113
M  V30 118 1 109 114
M  V30 119 1 110 115
M  V30 120 1 111 116
M  V30 121 9 82 77
M  V30 122 9 79 77
M  V30 123 9 108 77
M  V30 124 9 105 77
M  V30 125 9 95 77
M  V30 126 9 92 77
M  V30 127 2 118 119
M  V30 128 1 119 120
M  V30 129 1 120 121
M  V30 130 2 121 122
M  V30 131 2 120 123
M  V30 132 1 123 124
M  V30 133 2 124 125
M  V30 134 1 125 118
M  V30 135 1 118 126
M  V30 136 1 121 127
M  V30 137 1 123 128
M  V30 138 1 124 129
M  V30 139 1 125 130
M  V30 140 2 131 132
M  V30 141 1 132 133
M  V30 142 1 133 134
M  V30 143 2 134 135
M  V30 144 2 133 136
M  V30 145 1 136 137
M  V30 146 2 137 138
M  V30 147 1 138 131
M  V30 148 1 131 139
M  V30 149 1 134 140
M  V30 150 1 136 141
M  V30 151 1 137 142
M  V30 152 1 138 143
M  V30 153 2 144 145
M  V30 154 1 145 146
M  V30 155 1 146 147
M  V30 156 2 147 148
M  V30 157 2 146 149
M  V30 158 1 149 150
M  V30 159 2 150 151
M  V30 160 1 151 144
M  V30 161 1 144 152
M  V30 162 1 147 153
M  V30 163 1 149 154
M  V30 164 1 150 155
M  V30 165 1 151 156
M  V30 166 9 122 117
M  V30 167 9 119 117
M  V30 168 9 148 117
M  V30 169 9 145 117
M  V30 170 9 135 117
M  V30 171 9 132 117
M  V30 172 2 158 159
M  V30 173 1 159 160
M  V30 174 1 160 161
M  V30 175 2 161 162
M  V30 176 2 160 163
M  V30 177 1 163 164
M  V30 178 2 164 165
M  V30 179 1 165 158
M  V30 180 1 158 166
M  V30 181 1 161 167
M  V30 182 1 163 168
M  V30 183 1 164 169
M  V30 184 1 165 170
M  V30 185 2 171 172
M  V30 186 1 172 173
M  V30 187 1 173 174
M  V30 188 2 174 175
M  V30 189 2 173 176
M  V30 190 1 176 177
M  V30 191 2 177 178
M  V30 192 1 178 171
M  V30 193 1 171 179
M  V30 194 1 174 180
M  V30 195 1 176 181
M  V30 196 1 177 182
M  V30 197 1 178 183
M  V30 198 2 184 185
M  V30 199 1 185 186
M  V30 200 1 186 187
M  V30 201 2 187 188
M  V30 202 2 186 189
M  V30 203 1 189 190
M  V30 204 2 190 191
M  V30 205 1 191 184
M  V30 206 1 184 192
M  V30 207 1 187 193
M  V30 208 1 189 194
M  V30 209 1 190 195
M  V30 210 1 191 196
M  V30 211 9 162 157
M  V30 212 9 159 157
M  V30 213 9 188 157
M  V30 214 9 185 157
M  V30 215 9 175 157
M  V30 216 9 172 157
M  V30 217 1 1 42
M  V30 218 1 10 68
M  V30 219 1 19 55
M  V30 220 1 5 82
M  V30 221 1 12 95
M  V30 222 1 28 108
M  V30 223 1 3 122
M  V30 224 1 23 148
M  V30 225 1 30 135
M  V30 226 1 14 162
M  V30 227 1 21 175
M  V30 228 1 32 188
M  V30 END BOND
M  V30 END CTAB
M  END

$$$$
