
     RDKit          3D

  0  0  0  0  0  0  0  0  0  0999 V3000
M  V30 BEGIN CTAB
M  V30 COUNTS 316 360 0 0 0
M  V30 BEGIN ATOM
M  V30 1 C -1.3209 -1.8754 6.1511 0
M  V30 2 C -1.5409 -3.2508 6.0358 0
M  V30 3 C -1.2679 -3.9070 4.8493 0
M  V30 4 C -0.8055 -1.1836 5.0557 0
M  V30 5 C -0.5445 -1.8435 3.8730 0
M  V30 6 C -0.7711 -3.2126 3.7500 0
M  V30 7 C -0.4580 -3.8725 2.4615 0
M  V30 8 C 0.8670 -3.9880 2.0597 0
M  V30 9 C 1.1990 -4.5264 0.8172 0
M  V30 10 C 2.6074 -4.6363 0.3999 0
M  V30 11 C 3.5442 -3.6874 0.8100 0
M  V30 12 C 4.8680 -3.7761 0.4336 0
M  V30 13 C 5.2936 -4.7961 -0.4188 0
M  V30 14 C 4.3670 -5.7512 -0.8354 0
M  V30 15 C 3.0533 -5.6790 -0.4158 0
M  V30 16 C 0.1668 -4.9206 -0.0309 0
M  V30 17 C -1.1671 -4.8144 0.3543 0
M  V30 18 C -2.2434 -5.1656 -0.5889 0
M  V30 19 C -2.1445 -4.7791 -1.9247 0
M  V30 20 C -3.1543 -5.0562 -2.8216 0
M  V30 21 C -4.3216 -5.6917 -2.4008 0
M  V30 22 C -4.4216 -6.1025 -1.0732 0
M  V30 23 C -3.3890 -5.8524 -0.1867 0
M  V30 24 C -1.4707 -4.3062 1.6156 0
M  V30 25 H -1.8909 -3.8162 6.8865 0
M  V30 26 H -1.4303 -4.9717 4.7798 0
M  V30 27 H -0.6407 -0.1220 5.1301 0
M  V30 28 H -0.1629 -1.2887 3.0281 0
M  V30 29 H 1.6445 -3.6843 2.7441 0
M  V30 30 H 3.2317 -2.8555 1.4224 0
M  V30 31 H 5.5736 -3.0252 0.7544 0
M  V30 32 H 4.6947 -6.5686 -1.4590 0
M  V30 33 H 2.3673 -6.4577 -0.7104 0
M  V30 34 H 0.4026 -5.3159 -1.0072 0
M  V30 35 H -1.2713 -4.2410 -2.2628 0
M  V30 36 H -3.0660 -4.7422 -3.8496 0
M  V30 37 H -5.2958 -6.6480 -0.7499 0
M  V30 38 H -3.4672 -6.2092 0.8294 0
M  V30 39 H -2.5007 -4.2070 1.9253 0
M  V30 40 C -1.6180 2.0315 5.8650 0
M  V30 41 C -2.8673 1.4411 5.6763 0
M  V30 42 C -3.4380 1.4014 4.4198 0
M  V30 43 C -0.9661 2.5885 4.7637 0
M  V30 44 C -1.5272 2.5082 3.5059 0
M  V30 45 C -2.7737 1.9160 3.3041 0
M  V30 46 C -3.3570 1.8299 1.9537 0
M  V30 47 C -4.0940 0.7118 1.5712 0
M  V30 48 C -4.6422 0.6152 0.2952 0
M  V30 49 C -5.3693 -0.6016 -0.1104 0
M  V30 50 C -4.8589 -1.8545 0.2251 0
M  V30 51 C -5.4966 -3.0114 -0.1709 0
M  V30 52 C -6.6478 -2.9530 -0.9543 0
M  V30 53 C -7.1779 -1.7061 -1.2791 0
M  V30 54 C -6.5504 -0.5491 -0.8506 0
M  V30 55 C -4.4399 1.6522 -0.6103 0
M  V30 56 C -3.6790 2.7677 -0.2650 0
M  V30 57 C -3.3688 3.8117 -1.2571 0
M  V30 58 C -3.1589 3.4741 -2.5948 0
M  V30 59 C -2.7806 4.4215 -3.5228 0
M  V30 60 C -2.5574 5.7429 -3.1325 0
M  V30 61 C -2.8062 6.1006 -1.8088 0
M  V30 62 C -3.2204 5.1519 -0.8941 0
M  V30 63 C -3.1532 2.8464 1.0229 0
M  V30 64 H -3.4000 1.0483 6.5284 0
M  V30 65 H -4.4257 0.9823 4.3065 0
M  V30 66 H 0.0063 3.0382 4.8953 0
M  V30 67 H -0.9777 2.8995 2.6632 0
M  V30 68 H -4.2446 -0.0936 2.2739 0
M  V30 69 H -3.9426 -1.9246 0.7926 0
M  V30 70 H -5.0842 -3.9734 0.0892 0
M  V30 71 H -8.0995 -1.6486 -1.8389 0
M  V30 72 H -6.9934 0.4083 -1.0810 0
M  V30 73 H -4.8776 1.5858 -1.5948 0
M  V30 74 H -3.2724 2.4489 -2.9129 0
M  V30 75 H -2.5975 4.1329 -4.5474 0
M  V30 76 H -2.7078 7.1350 -1.5150 0
M  V30 77 H -3.4507 5.4594 0.1148 0
M  V30 78 H -2.5776 3.7145 1.3048 0
M  V30 79 C 1.9160 0.2099 6.1340 0
M  V30 80 C 2.1139 1.5602 5.8520 0
M  V30 81 C 2.5408 1.9581 4.6001 0
M  V30 82 C 2.1977 -0.7298 5.1412 0
M  V30 83 C 2.5859 -0.3203 3.8825 0
M  V30 84 C 2.7511 1.0309 3.5772 0
M  V30 85 C 3.0952 1.4565 2.2089 0
M  V30 86 C 2.5442 2.6210 1.6794 0
M  V30 87 C 2.8066 3.0151 0.3693 0
M  V30 88 C 2.1790 4.2267 -0.1873 0
M  V30 89 C 0.8843 4.5876 0.1858 0
M  V30 90 C 0.2761 5.7133 -0.3299 0
M  V30 91 C 0.9302 6.4945 -1.2834 0
M  V30 92 C 2.2263 6.1463 -1.6612 0
M  V30 93 C 2.8420 5.0414 -1.1074 0
M  V30 94 C 3.6438 2.2241 -0.4137 0
M  V30 95 C 4.2115 1.0553 0.0899 0
M  V30 96 C 5.0526 0.1954 -0.7616 0
M  V30 97 C 4.7827 0.0621 -2.1243 0
M  V30 98 C 5.5229 -0.7863 -2.9212 0
M  V30 99 C 6.5350 -1.5730 -2.3690 0
M  V30 100 C 6.8385 -1.4197 -1.0179 0
M  V30 101 C 6.1198 -0.5360 -0.2360 0
M  V30 102 C 3.9291 0.6846 1.4032 0
M  V30 103 H 1.9682 2.2886 6.6355 0
M  V30 104 H 2.7336 3.0046 4.4181 0
M  V30 105 H 2.0548 -1.7801 5.3491 0
M  V30 106 H 2.7427 -1.0643 3.1165 0
M  V30 107 H 1.9042 3.2304 2.2983 0
M  V30 108 H 0.3347 3.9686 0.8785 0
M  V30 109 H -0.7317 5.9671 -0.0381 0
M  V30 110 H 2.7583 6.7706 -2.3620 0
M  V30 111 H 3.8626 4.8206 -1.3787 0
M  V30 112 H 3.8559 2.5252 -1.4279 0
M  V30 113 H 3.9677 0.6157 -2.5659 0
M  V30 114 H 5.2852 -0.8888 -3.9699 0
M  V30 115 H 7.6676 -1.9696 -0.5982 0
M  V30 116 H 6.4044 -0.3973 0.7961 0
M  V30 117 H 4.3682 -0.2155 1.8047 0
M  V30 118 C -5.3339 -2.7015 -4.5364 0
M  V30 119 C -4.4367 -3.3088 -5.4122 0
M  V30 120 C -3.1474 -2.8212 -5.5387 0
M  V30 121 C -4.9159 -1.5879 -3.8100 0
M  V30 122 C -3.6198 -1.1305 -3.9150 0
M  V30 123 C -2.7096 -1.7361 -4.7800 0
M  V30 124 C -1.3285 -1.2273 -4.8501 0
M  V30 125 C -0.2404 -2.0967 -4.8413 0
M  V30 126 C 1.0585 -1.6048 -4.8024 0
M  V30 127 C 2.2102 -2.5202 -4.6318 0
M  V30 128 C 2.8706 -2.5315 -3.4052 0
M  V30 129 C 3.9524 -3.3589 -3.1889 0
M  V30 130 C 4.3959 -4.2187 -4.1928 0
M  V30 131 C 3.7437 -4.2029 -5.4289 0
M  V30 132 C 2.6656 -3.3627 -5.6417 0
M  V30 133 C 1.2732 -0.2307 -4.8284 0
M  V30 134 C 0.2003 0.6517 -4.8665 0
M  V30 135 C 0.4212 2.1155 -4.8620 0
M  V30 136 C 0.9667 2.7761 -5.9601 0
M  V30 137 C 1.1608 4.1446 -5.9394 0
M  V30 138 C 0.8156 4.8919 -4.8094 0
M  V30 139 C 0.2519 4.2328 -3.7175 0
M  V30 140 C 0.0649 2.8658 -3.7440 0
M  V30 141 C -1.0934 0.1458 -4.8539 0
M  V30 142 H -4.7652 -4.1403 -6.0180 0
M  V30 143 H -2.4762 -3.2796 -6.2495 0
M  V30 144 H -5.6062 -1.1103 -3.1331 0
M  V30 145 H -3.3036 -0.2983 -3.3039 0
M  V30 146 H -0.4036 -3.1643 -4.8189 0
M  V30 147 H 2.5280 -1.8857 -2.6099 0
M  V30 148 H 4.4423 -3.3675 -2.2303 0
M  V30 149 H 4.1016 -4.8220 -6.2380 0
M  V30 150 H 2.1799 -3.3536 -6.6055 0
M  V30 151 H 2.2829 0.1527 -4.8124 0
M  V30 152 H 1.2290 2.2143 -6.8436 0
M  V30 153 H 1.5480 4.6383 -6.8181 0
M  V30 154 H -0.0084 4.7958 -2.8372 0
M  V30 155 H -0.3567 2.3709 -2.8812 0
M  V30 156 H -1.9269 0.8317 -4.8836 0
M  V30 157 Zn -0.4490 0.3390 8.3787 0 CHG=2
M  V30 158 C -2.6102 1.1352 10.5121 0
M  V30 159 N -2.2601 0.3788 9.4827 0
M  V30 160 C -3.0636 -0.6401 9.1340 0
M  V30 161 C -2.6776 -1.4145 7.9717 0
M  V30 162 N -1.6160 -1.1505 7.3107 0
M  V30 163 C -4.2393 -0.9277 9.8275 0
M  V30 164 C -4.5937 -0.1378 10.9123 0
M  V30 165 C -3.7652 0.9196 11.2567 0
M  V30 166 H -1.9448 1.9493 10.7622 0
M  V30 167 H -3.3702 -2.1965 7.6597 0
M  V30 168 H -4.8602 -1.7565 9.5246 0
M  V30 169 H -5.4936 -0.3409 11.4721 0
M  V30 170 H -4.0031 1.5649 12.0872 0
M  V30 171 C -0.1045 -1.5647 10.8867 0
M  V30 172 N 0.3495 -1.1450 9.7145 0
M  V30 173 C 1.5211 -1.6328 9.2758 0
M  V30 174 C 2.0075 -1.1351 8.0061 0
M  V30 175 N 1.4194 -0.1910 7.3794 0
M  V30 176 C 2.2619 -2.5614 10.0072 0
M  V30 177 C 1.7801 -2.9938 11.2345 0
M  V30 178 C 0.5709 -2.4839 11.6822 0
M  V30 179 H -1.0450 -1.1497 11.2197 0
M  V30 180 H 2.9259 -1.5850 7.6277 0
M  V30 181 H 3.2022 -2.9272 9.6250 0
M  V30 182 H 2.3347 -3.7053 11.8266 0
M  V30 183 H 0.1568 -2.7860 12.6309 0
M  V30 184 C 1.0649 1.9457 10.6071 0
M  V30 185 N 0.4190 1.9554 9.4509 0
M  V30 186 C 0.1592 3.1404 8.8736 0
M  V30 187 C -0.5494 3.1112 7.6092 0
M  V30 188 N -1.0069 2.0232 7.1237 0
M  V30 189 C 0.5437 4.3493 9.4527 0
M  V30 190 C 1.2142 4.3316 10.6682 0
M  V30 191 C 1.4828 3.1042 11.2544 0
M  V30 192 H 1.2600 0.9771 11.0442 0
M  V30 193 H -0.6890 4.0672 7.1032 0
M  V30 194 H 0.3130 5.2836 8.9646 0
M  V30 195 H 1.5180 5.2511 11.1442 0
M  V30 196 H 2.0035 3.0401 12.1965 0
M  V30 197 Zn -7.3482 -5.0032 -3.4016 0 CHG=2
M  V30 198 C -8.3002 -6.2969 -6.0913 0
M  V30 199 N -7.3352 -6.1153 -5.2018 0
M  V30 200 C -6.1674 -6.7526 -5.3854 0
M  V30 201 C -5.1402 -6.5419 -4.3838 0
M  V30 202 N -5.3732 -5.9024 -3.3048 0
M  V30 203 C -5.9431 -7.5911 -6.4767 0
M  V30 204 C -6.9608 -7.7819 -7.4014 0
M  V30 205 C -8.1628 -7.1194 -7.2048 0
M  V30 206 H -9.2267 -5.7692 -5.9140 0
M  V30 207 H -4.1635 -6.9842 -4.5840 0
M  V30 208 H -4.9943 -8.0922 -6.5909 0
M  V30 209 H -6.8193 -8.4311 -8.2517 0
M  V30 210 H -8.9818 -7.2360 -7.8966 0
M  V30 211 C -8.7789 -7.6855 -2.6553 0
M  V30 212 N -8.2268 -6.5492 -2.2564 0
M  V30 213 C -8.2436 -6.2545 -0.9464 0
M  V30 214 C -7.6462 -4.9938 -0.5491 0
M  V30 215 N -7.2520 -4.1366 -1.4069 0
M  V30 216 C -8.8187 -7.1040 -0.0021 0
M  V30 217 C -9.4009 -8.2903 -0.4276 0
M  V30 218 C -9.3786 -8.5869 -1.7818 0
M  V30 219 H -8.7478 -7.8920 -3.7159 0
M  V30 220 H -7.5792 -4.8000 0.5223 0
M  V30 221 H -8.8196 -6.8340 1.0426 0
M  V30 222 H -9.8606 -8.9640 0.2790 0
M  V30 223 H -9.8177 -9.4967 -2.1592 0
M  V30 224 C -10.4240 -4.4688 -3.6470 0
M  V30 225 N -9.1830 -4.0413 -3.8271 0
M  V30 226 C -8.9955 -2.8470 -4.4116 0
M  V30 227 C -7.6231 -2.4194 -4.6054 0
M  V30 228 N -6.6377 -3.1952 -4.3739 0
M  V30 229 C -10.0607 -2.0499 -4.8290 0
M  V30 230 C -11.3584 -2.5067 -4.6432 0
M  V30 231 C -11.5429 -3.7407 -4.0383 0
M  V30 232 H -10.5388 -5.4335 -3.1731 0
M  V30 233 H -7.4749 -1.4089 -4.9884 0
M  V30 234 H -9.8746 -1.0970 -5.3000 0
M  V30 235 H -12.2027 -1.9156 -4.9631 0
M  V30 236 H -12.5322 -4.1364 -3.8724 0
M  V30 237 Zn 7.3618 -4.6852 -2.9192 0 CHG=2
M  V30 238 C 10.4213 -4.5260 -2.2421 0
M  V30 239 N 9.1711 -4.5846 -1.8087 0
M  V30 240 C 8.9574 -4.6990 -0.4872 0
M  V30 241 C 7.5763 -4.7589 -0.0505 0
M  V30 242 N 6.6129 -4.8235 -0.8849 0
M  V30 243 C 10.0039 -4.7601 0.4323 0
M  V30 244 C 11.3117 -4.7054 -0.0300 0
M  V30 245 C 11.5233 -4.5823 -1.3947 0
M  V30 246 H 10.5594 -4.4322 -3.3096 0
M  V30 247 H 7.4023 -4.7645 1.0261 0
M  V30 248 H 9.7961 -4.8584 1.4866 0
M  V30 249 H 12.1424 -4.7577 0.6568 0
M  V30 250 H 12.5212 -4.5327 -1.8004 0
M  V30 251 C 8.4093 -7.6432 -2.8111 0
M  V30 252 N 7.4681 -6.7884 -3.1824 0
M  V30 253 C 6.4828 -7.2287 -3.9827 0
M  V30 254 C 5.4414 -6.2818 -4.3266 0
M  V30 255 N 5.4618 -5.0766 -3.9014 0
M  V30 256 C 6.4312 -8.5461 -4.4389 0
M  V30 257 C 7.4276 -9.4330 -4.0553 0
M  V30 258 C 8.4330 -8.9731 -3.2183 0
M  V30 259 H 9.1835 -7.2583 -2.1626 0
M  V30 260 H 4.6125 -6.6688 -4.9197 0
M  V30 261 H 5.6285 -8.8666 -5.0848 0
M  V30 262 H 7.4178 -10.4560 -4.3986 0
M  V30 263 H 9.2241 -9.6271 -2.8878 0
M  V30 264 C 8.9819 -5.2513 -5.5803 0
M  V30 265 N 8.3518 -4.3819 -4.8034 0
M  V30 266 C 8.3652 -3.0870 -5.1585 0
M  V30 267 C 7.6938 -2.1552 -4.2766 0
M  V30 268 N 7.2138 -2.5158 -3.1500 0
M  V30 269 C 9.0108 -2.6374 -6.3104 0
M  V30 270 C 9.6702 -3.5541 -7.1167 0
M  V30 271 C 9.6541 -4.8891 -6.7426 0
M  V30 272 H 8.9624 -6.2852 -5.2669 0
M  V30 273 H 7.6498 -1.1175 -4.6085 0
M  V30 274 H 9.0049 -1.5879 -6.5607 0
M  V30 275 H 10.1854 -3.2351 -8.0096 0
M  V30 276 H 10.1548 -5.6389 -7.3342 0
M  V30 277 Zn -0.2389 7.8735 -3.9760 0 CHG=2
M  V30 278 C -0.5214 9.1922 -6.8426 0
M  V30 279 N -0.9815 8.3380 -5.9398 0
M  V30 280 C -2.1325 7.6973 -6.2012 0
M  V30 281 C -2.6241 6.7877 -5.1878 0
M  V30 282 N -2.0647 6.6825 -4.0449 0
M  V30 283 C -2.8464 7.8999 -7.3824 0
M  V30 284 C -2.3590 8.7986 -8.3205 0
M  V30 285 C -1.1706 9.4570 -8.0437 0
M  V30 286 H 0.4024 9.6995 -6.6047 0
M  V30 287 H -3.5196 6.2185 -5.4385 0
M  V30 288 H -3.7709 7.3709 -7.5548 0
M  V30 289 H -2.8932 8.9823 -9.2399 0
M  V30 290 H -0.7524 10.1665 -8.7397 0
M  V30 291 C -1.8886 10.5202 -3.6325 0
M  V30 292 N -1.2131 9.5312 -3.0673 0
M  V30 293 C -1.0062 9.5747 -1.7404 0
M  V30 294 C -0.2591 8.4765 -1.1586 0
M  V30 295 N 0.2757 7.5749 -1.8856 0
M  V30 296 C -1.4760 10.6222 -0.9491 0
M  V30 297 C -2.1777 11.6587 -1.5497 0
M  V30 298 C -2.3903 11.6039 -2.9186 0
M  V30 299 H -2.0388 10.4550 -4.7006 0
M  V30 300 H -0.1590 8.4714 -0.0726 0
M  V30 301 H -1.2865 10.6285 0.1132 0
M  V30 302 H -2.5475 12.4865 -0.9645 0
M  V30 303 H -2.9317 12.3845 -3.4288 0
M  V30 304 C 1.8238 10.2239 -4.2071 0
M  V30 305 N 1.5427 8.9420 -4.3867 0
M  V30 306 C 2.4197 8.1821 -5.0634 0
M  V30 307 C 2.1061 6.7739 -5.1980 0
M  V30 308 N 1.0348 6.2707 -4.7147 0
M  V30 309 C 3.6028 8.7043 -5.5870 0
M  V30 310 C 3.8853 10.0510 -5.4049 0
M  V30 311 C 2.9800 10.8246 -4.6942 0
M  V30 312 H 1.0992 10.8046 -3.6541 0
M  V30 313 H 2.8610 6.1573 -5.6864 0
M  V30 314 H 4.2844 8.0681 -6.1301 0
M  V30 315 H 4.7890 10.4841 -5.8052 0
M  V30 316 H 3.1601 11.8736 -4.5214 0
M  V30 END ATOM
M  V30 BEGIN BOND
M  V30 1 2 1 2
M  V30 2 1 2 3
M  V30 3 1 1 4
M  V30 4 2 4 5
M  V30 5 1 5 6
M  V30 6 1 6 7
M  V30 7 2 7 8
M  V30 8 1 8 9
M  V30 9 1 9 10
M  V30 10 2 10 11
M  V30 11 1 11 12
M  V30 12 2 12 13
M  V30 13 1 13 14
M  V30 14 2 14 15
M  V30 15 2 9 16
M  V30 16 1 16 17
M  V30 17 1 17 18
M  V30 18 2 18 19
M  V30 19 1 19 20
M  V30 20 2 20 21
M  V30 21 1 21 22
M  V30 22 2 22 23
M  V30 23 2 17 24
M  V30 24 2 6 3
M  V30 25 1 24 7
M  V30 26 1 15 10
M  V30 27 1 23 18
M  V30 28 1 2 25
M  V30 29 1 3 26
M  V30 30 1 4 27
M  V30 31 1 5 28
M  V30 32 1 8 29
M  V30 33 1 11 30
M  V30 34 1 12 31
M  V30 35 1 14 32
M  V30 36 1 15 33
M  V30 37 1 16 34
M  V30 38 1 19 35
M  V30 39 1 20 36
M  V30 40 1 22 37
M  V30 41 1 23 38
M  V30 42 1 24 39
M  V30 43 2 40 41
M  V30 44 1 41 42
M  V30 45 1 40 43
M  V30 46 2 43 44
M  V30 47 1 44 45
M  V30 48 1 45 46
M  V30 49 2 46 47
M  V30 50 1 47 48
M  V30 51 1 48 49
M  V30 52 2 49 50
M  V30 53 1 50 51
M  V30 54 2 51 52
M  V30 55 1 52 53
M  V30 56 2 53 54
M  V30 57 2 48 55
M  V30 58 1 55 56
M  V30 59 1 56 57
M  V30 60 2 57 58
M  V30 61 1 58 59
M  V30 62 2 59 60
M  V30 63 1 60 61
M  V30 64 2 61 62
M  V30 65 2 56 63
M  V30 66 2 45 42
M  V30 67 1 63 46
M  V30 68 1 54 49
M  V30 69 1 62 57
M  V30 70 1 41 64
M  V30 71 1 42 65
M  V30 72 1 43 66
M  V30 73 1 44 67
M  V30 74 1 47 68
M  V30 75 1 50 69
M  V30 76 1 51 70
M  V30 77 1 53 71
M  V30 78 1 54 72
M  V30 79 1 55 73
M  V30 80 1 58 74
M  V30 81 1 59 75
M  V30 82 1 61 76
M  V30 83 1 62 77
M  V30 84 1 63 78
M  V30 85 2 79 80
M  V30 86 1 80 81
M  V30 87 1 79 82
M  V30 88 2 82 83
M  V30 89 1 83 84
M  V30 90 1 84 85
M  V30 91 2 85 86
M  V30 92 1 86 87
M  V30 93 1 87 88
M  V30 94 2 88 89
M  V30 95 1 89 90
M  V30 96 2 90 91
M  V30 97 1 91 92
M  V30 98 2 92 93
M  V30 99 2 87 94
M  V30 100 1 94 95
M  V30 101 1 95 96
M  V30 102 2 96 97
M  V30 103 1 97 98
M  V30 104 2 98 99
M  V30 105 1 99 100
M  V30 106 2 100 101
M  V30 107 2 95 102
M  V30 108 2 84 81
M  V30 109 1 102 85
M  V30 110 1 93 88
M  V30 111 1 101 96
M  V30 112 1 80 103
M  V30 113 1 81 104
M  V30 114 1 82 105
M  V30 115 1 83 106
M  V30 116 1 86 107
M  V30 117 1 89 108
M  V30 118 1 90 109
M  V30 119 1 92 110
M  V30 120 1 93 111
M  V30 121 1 94 112
M  V30 122 1 97 113
M  V30 123 1 98 114
M  V30 124 1 100 115
M  V30 125 1 101 116
M  V30 126 1 102 117
M  V30 127 2 118 119
M  V30 128 1 119 120
M  V30 129 1 118 121
M  V30 130 2 121 122
M  V30 131 1 122 123
M  V30 132 1 123 124
M  V30 133 2 124 125
M  V30 134 1 125 126
M  V30 135 1 126 127
M  V30 136 2 127 128
M  V30 137 1 128 129
M  V30 138 2 129 130
M  V30 139 1 130 131
M  V30 140 2 131 132
M  V30 141 2 126 133
M  V30 142 1 133 134
M  V30 143 1 134 135
M  V30 144 2 135 136
M  V30 145 1 136 137
M  V30 146 2 137 138
M  V30 147 1 138 139
M  V30 148 2 139 140
M  V30 149 2 134 141
M  V30 150 2 123 120
M  V30 151 1 141 124
M  V30 152 1 132 127
M  V30 153 1 140 135
M  V30 154 1 119 142
M  V30 155 1 120 143
M  V30 156 1 121 144
M  V30 157 1 122 145
M  V30 158 1 125 146
M  V30 159 1 128 147
M  V30 160 1 129 148
M  V30 161 1 131 149
M  V30 162 1 132 150
M  V30 163 1 133 151
M  V30 164 1 136 152
M  V30 165 1 137 153
M  V30 166 1 139 154
M  V30 167 1 140 155
M  V30 168 1 141 156
M  V30 169 2 158 159
M  V30 170 1 159 160
M  V30 171 1 160 161
M  V30 172 2 161 162
M  V30 173 2 160 163
M  V30 174 1 163 164
M  V30 175 2 164 165
M  V30 176 1 165 158
M  V30 177 1 158 166
M  V30 178 1 161 167
M  V30 179 1 163 168
M  V30 180 1 164 169
M  V30 181 1 165 170
M  V30 182 2 171 172
M  V30 183 1 172 173
M  V30 184 1 173 174
M  V30 185 2 174 175
M  V30 186 2 173 176
M  V30 187 1 176 177
M  V30 188 2 177 178
M  V30 189 1 178 171
M  V30 190 1 171 179
M  V30 191 1 174 180
M  V30 192 1 176 181
M  V30 193 1 177 182
M  V30 194 1 178 183
M  V30 195 2 184 185
M  V30 196 1 185 186
M  V30 197 1 186 187
M  V30 198 2 187 188
M  V30 199 2 186 189
M  V30 200 1 189 190
M  V30 201 2 190 191
M  V30 202 1 191 184
M  V30 203 1 184 192
M  V30 204 1 187 193
M  V30 205 1 189 194
M  V30 206 1 190 195
M  V30 207 1 191 196
M  V30 208 9 162 157
M  V30 209 9 159 157
M  V30 210 9 188 157
M  V30 211 9 185 157
M  V30 212 9 175 157
M  V30 213 9 172 157
M  V30 214 2 198 199
M  V30 215 1 199 200
M  V30 216 1 200 201
M  V30 217 2 201 202
M  V30 218 2 200 203
M  V30 219 1 203 204
M  V30 220 2 204 205
M  V30 221 1 205 198
M  V30 222 1 198 206
M  V30 223 1 201 207
M  V30 224 1 203 208
M  V30 225 1 204 209
M  V30 226 1 205 210
M  V30 227 2 211 212
M  V30 228 1 212 213
M  V30 229 1 213 214
M  V30 230 2 214 215
M  V30 231 2 213 216
M  V30 232 1 216 217
M  V30 233 2 217 218
M  V30 234 1 218 211
M  V30 235 1 211 219
M  V30 236 1 214 220
M  V30 237 1 216 221
M  V30 238 1 217 222
M  V30 239 1 218 223
M  V30 240 2 224 225
M  V30 241 1 225 226
M  V30 242 1 226 227
M  V30 243 2 227 228
M  V30 244 2 226 229
M  V30 245 1 229 230
M  V30 246 2 230 231
M  V30 247 1 231 224
M  V30 248 1 224 232
M  V30 249 1 227 233
M  V30 250 1 229 234
M  V30 251 1 230 235
M  V30 252 1 231 236
M  V30 253 9 202 197
M  V30 254 9 199 197
M  V30 255 9 228 197
M  V30 256 9 225 197
M  V30 257 9 215 197
M  V30 258 9 212 197
M  V30 259 2 238 239
M  V30 260 1 239 240
M  V30 261 1 240 241
M  V30 262 2 241 242
M  V30 263 2 240 243
M  V30 264 1 243 244
M  V30 265 2 244 245
M  V30 266 1 245 238
M  V30 267 1 238 246
M  V30 268 1 241 247
M  V30 269 1 243 248
M  V30 270 1 244 249
M  V30 271 1 245 250
M  V30 272 2 251 252
M  V30 273 1 252 253
M  V30 274 1 253 254
M  V30 275 2 254 255
M  V30 276 2 253 256
M  V30 277 1 256 257
M  V30 278 2 257 258
M  V30 279 1 258 251
M  V30 280 1 251 259
M  V30 281 1 254 260
M  V30 282 1 256 261
M  V30 283 1 257 262
M  V30 284 1 258 263
M  V30 285 2 264 265
M  V30 286 1 265 266
M  V30 287 1 266 267
M  V30 288 2 267 268
M  V30 289 2 266 269
M  V30 290 1 269 270
M  V30 291 2 270 271
M  V30 292 1 271 264
M  V30 293 1 264 272
M  V30 294 1 267 273
M  V30 295 1 269 274
M  V30 296 1 270 275
M  V30 297 1 271 276
M  V30 298 9 242 237
M  V30 299 9 239 237
M  V30 300 9 268 237
M  V30 301 9 265 237
M  V30 302 9 255 237
M  V30 303 9 252 237
M  V30 304 2 278 279
M  V30 305 1 279 280
M  V30 306 1 280 281
M  V30 307 2 281 282
M  V30 308 2 280 283
M  V30 309 1 283 284
M  V30 310 2 284 285
M  V30 311 1 285 278
M  V30 312 1 278 286
M  V30 313 1 281 287
M  V30 314 1 283 288
M  V30 315 1 284 289
M  V30 316 1 285 290
M  V30 317 2 291 292
M  V30 318 1 292 293
M  V30 319 1 293 294
M  V30 320 2 294 295
M  V30 321 2 293 296
M  V30 322 1 296 297
M  V30 323 2 297 298
M  V30 324 1 298 291
M  V30 325 1 291 299
M  V30 326 1 294 300
M  V30 327 1 296 301
M  V30 328 1 297 302
M  V30 329 1 298 303
M  V30 330 2 304 305
M  V30 331 1 305 306
M  V30 332 1 306 307
M  V30 333 2 307 308
M  V30 334 2 306 309
M  V30 335 1 309 310
M  V30 336 2 310 311
M  V30 337 1 311 304
M  V30 338 1 304 312
M  V30 339 1 307 313
M  V30 340 1 309 314
M  V30 341 1 310 315
M  V30 342 1 311 316
M  V30 343 9 282 277
M  V30 344 9 279 277
M  V30 345 9 308 277
M  V30 346 9 305 277
M  V30 347 9 295 277
M  V30 348 9 292 277
M  V30 349 1 1 162
M  V30 350 1 40 188
M  V30 351 1 79 175
M  V30 352 1 21 202
M  V30 353 1 52 215
M  V30 354 1 118 228
M  V30 355 1 13 242
M  V30 356 1 99 268
M  V30 357 1 130 255
M  V30 358 1 60 282
M  V30 359 1 91 295
M  V30 360 1 138 308
M  V30 END BOND
M  V30 END CTAB
M  END

$$$$
