
     RDKit          3D

  0  0  0  0  0  0  0  0  0  0999 V3000
M  V30 BEGIN CTAB
M  V30 COUNTS 232 264 0 0 0
M  V30 BEGIN ATOM
M  V30 1 C 0.3422 -2.6331 2.6025 0
M  V30 2 C 1.6634 -2.8253 2.2097 0
M  V30 3 C 1.9623 -3.2816 0.9258 0
M  V30 4 C 0.9255 -3.5617 0.0408 0
M  V30 5 C -0.4030 -3.3731 0.4223 0
M  V30 6 C -0.6880 -2.9177 1.7061 0
M  V30 7 H 2.4487 -2.6309 2.9213 0
M  V30 8 H 1.1684 -3.9425 -0.9375 0
M  V30 9 H -1.7189 -2.8055 1.9988 0
M  V30 10 C -0.9459 1.1025 2.6362 0
M  V30 11 C -1.7852 0.0495 2.2846 0
M  V30 12 C -2.3708 0.0016 1.0194 0
M  V30 13 C -2.1239 1.0275 0.1119 0
M  V30 14 C -1.2846 2.0885 0.4522 0
M  V30 15 C -0.7064 2.1246 1.7176 0
M  V30 16 H -1.9865 -0.7178 3.0137 0
M  V30 17 H -2.6064 0.9944 -0.8509 0
M  V30 18 H -0.0845 2.9648 1.9789 0
M  V30 19 C 2.9347 0.3508 2.5574 0
M  V30 20 C 2.4301 1.5988 2.2043 0
M  V30 21 C 2.6406 2.1127 0.9247 0
M  V30 22 C 3.3772 1.3740 0.0035 0
M  V30 23 C 3.8880 0.1217 0.3449 0
M  V30 24 C 3.6711 -0.3799 1.6248 0
M  V30 25 H 1.8889 2.1665 2.9432 0
M  V30 26 H 3.5590 1.7954 -0.9714 0
M  V30 27 H 4.0968 -1.3347 1.8859 0
M  V30 28 C -0.6811 -0.7080 -2.4835 0
M  V30 29 C 0.2817 -1.7125 -2.5111 0
M  V30 30 C 1.6394 -1.3930 -2.5310 0
M  V30 31 C 2.0277 -0.0566 -2.5413 0
M  V30 32 C 1.0724 0.9595 -2.5139 0
M  V30 33 C -0.2790 0.6277 -2.4938 0
M  V30 34 H -0.0424 -2.7399 -2.5336 0
M  V30 35 H 3.0785 0.1769 -2.5877 0
M  V30 36 H -1.0073 1.4217 -2.5034 0
M  V30 37 Zn 0.8267 -0.3990 5.0297 0 CHG=2
M  V30 38 N 0.0610 -2.1449 3.8851 0
M  V30 39 C -0.8248 -2.7423 4.5949 0
M  V30 40 C -1.2705 -2.2433 5.8677 0
M  V30 41 C -2.1786 -2.9724 6.6463 0
M  V30 42 C -2.6038 -2.4595 7.8553 0
M  V30 43 C -2.1318 -1.2105 8.2744 0
M  V30 44 C -2.5628 -0.6143 9.5529 0
M  V30 45 C -1.2226 -0.5593 7.4221 0
M  V30 46 N -0.7981 -1.0479 6.2699 0
M  V30 47 H -1.2849 -3.6717 4.2556 0
M  V30 48 H -2.5315 -3.9340 6.3064 0
M  V30 49 H -3.2941 -3.0116 8.4759 0
M  V30 50 H -2.3537 -1.2919 10.3824 0
M  V30 51 H -3.6459 -0.4785 9.5631 0
M  V30 52 H -2.0880 0.3427 9.7470 0
M  V30 53 H -0.8300 0.4049 7.7136 0
M  V30 54 N 2.6883 -0.1639 3.8367 0
M  V30 55 C 3.6683 -0.6472 4.5086 0
M  V30 56 C 3.4956 -1.3106 5.7724 0
M  V30 57 C 4.6031 -1.7498 6.5093 0
M  V30 58 C 4.4065 -2.4019 7.7100 0
M  V30 59 C 3.1015 -2.6272 8.1624 0
M  V30 60 C 2.8380 -3.3279 9.4333 0
M  V30 61 C 2.0587 -2.1461 7.3510 0
M  V30 62 N 2.2362 -1.5082 6.2073 0
M  V30 63 H 4.6931 -0.5730 4.1413 0
M  V30 64 H 5.6020 -1.5668 6.1441 0
M  V30 65 H 5.2474 -2.7377 8.2988 0
M  V30 66 H 3.3431 -2.8258 10.2603 0
M  V30 67 H 3.2635 -4.3329 9.4087 0
M  V30 68 H 1.7779 -3.4016 9.6562 0
M  V30 69 H 1.0363 -2.2946 7.6693 0
M  V30 70 N -0.3411 1.1198 3.8997 0
M  V30 71 C -0.3931 2.1958 4.5960 0
M  V30 72 C 0.3034 2.3515 5.8443 0
M  V30 73 C 0.1507 3.5141 6.6108 0
M  V30 74 C 0.8470 3.6445 7.7956 0
M  V30 75 C 1.7070 2.6180 8.2021 0
M  V30 76 C 2.4806 2.7131 9.4544 0
M  V30 77 C 1.7892 1.4923 7.3636 0
M  V30 78 N 1.1163 1.3513 6.2350 0
M  V30 79 H -0.9794 3.0538 4.2631 0
M  V30 80 H -0.5172 4.2949 6.2808 0
M  V30 81 H 0.7338 4.5276 8.4069 0
M  V30 82 H 3.0793 1.8271 9.6424 0
M  V30 83 H 1.8167 2.8828 10.3038 0
M  V30 84 H 3.1384 3.5839 9.4297 0
M  V30 85 H 2.4378 0.6749 7.6463 0
M  V30 86 Zn -3.2007 -2.4157 -1.1211 0 CHG=2
M  V30 87 N -1.4480 -3.6241 -0.4763 0
M  V30 88 C -1.4546 -4.7308 -1.1247 0
M  V30 89 C -2.4104 -5.0236 -2.1582 0
M  V30 90 C -2.4307 -6.2776 -2.7824 0
M  V30 91 C -3.3462 -6.5237 -3.7859 0
M  V30 92 C -4.2283 -5.5088 -4.1734 0
M  V30 93 C -5.2181 -5.7179 -5.2468 0
M  V30 94 C -4.1291 -4.2871 -3.4843 0
M  V30 95 N -3.2662 -4.0459 -2.5129 0
M  V30 96 H -0.7207 -5.5105 -0.9146 0
M  V30 97 H -1.7424 -7.0478 -2.4698 0
M  V30 98 H -3.3858 -7.4877 -4.2713 0
M  V30 99 H -5.8541 -6.5755 -5.0207 0
M  V30 100 H -4.7166 -5.9748 -6.1818 0
M  V30 101 H -5.8431 -4.8457 -5.4126 0
M  V30 102 H -4.7977 -3.4802 -3.7498 0
M  V30 103 N -3.1912 -1.0722 0.6503 0
M  V30 104 C -4.1238 -1.4425 1.4494 0
M  V30 105 C -4.9329 -2.6081 1.2166 0
M  V30 106 C -5.9951 -2.9270 2.0725 0
M  V30 107 C -6.7435 -4.0623 1.8349 0
M  V30 108 C -6.4168 -4.8846 0.7506 0
M  V30 109 C -7.1793 -6.1131 0.4593 0
M  V30 110 C -5.3341 -4.4770 -0.0488 0
M  V30 111 N -4.6205 -3.3848 0.1615 0
M  V30 112 H -4.3460 -0.8769 2.3556 0
M  V30 113 H -6.2321 -2.2805 2.9035 0
M  V30 114 H -7.5740 -4.3190 2.4759 0
M  V30 115 H -6.8206 -6.6252 -0.4284 0
M  V30 116 H -8.2399 -5.8869 0.3375 0
M  V30 117 H -7.1308 -6.8005 1.3060 0
M  V30 118 H -5.0543 -5.0823 -0.8997 0
M  V30 119 N -2.0397 -1.0457 -2.4326 0
M  V30 120 C -2.8507 -0.4723 -3.2443 0
M  V30 121 C -4.2754 -0.6575 -3.1844 0
M  V30 122 C -5.1152 -0.0767 -4.1435 0
M  V30 123 C -6.4808 -0.2552 -4.0500 0
M  V30 124 C -7.0037 -1.0008 -2.9874 0
M  V30 125 C -8.4557 -1.2125 -2.8373 0
M  V30 126 C -6.0776 -1.5428 -2.0786 0
M  V30 127 N -4.7679 -1.3901 -2.1672 0
M  V30 128 H -2.4856 0.1923 -4.0289 0
M  V30 129 H -4.6933 0.4950 -4.9558 0
M  V30 130 H -7.1443 0.1741 -4.7861 0
M  V30 131 H -8.8725 -1.6671 -3.7377 0
M  V30 132 H -8.9712 -0.2554 -2.7376 0
M  V30 133 H -8.6998 -1.8327 -1.9801 0
M  V30 134 H -6.4418 -2.1304 -1.2475 0
M  V30 135 Zn 4.4146 -2.7468 -1.2705 0 CHG=2
M  V30 136 N 3.2919 -3.4472 0.5169 0
M  V30 137 C 4.0991 -4.0872 1.2812 0
M  V30 138 C 5.5067 -4.1993 1.0099 0
M  V30 139 C 6.3352 -4.9776 1.8286 0
M  V30 140 C 7.6865 -5.0509 1.5560 0
M  V30 141 C 8.2079 -4.3318 0.4746 0
M  V30 142 C 9.6457 -4.3688 0.1477 0
M  V30 143 C 7.2936 -3.5821 -0.2864 0
M  V30 144 N 5.9963 -3.5167 -0.0428 0
M  V30 145 H 3.7437 -4.5823 2.1863 0
M  V30 146 H 5.9147 -5.5251 2.6581 0
M  V30 147 H 8.3400 -5.6551 2.1678 0
M  V30 148 H 10.2366 -4.0034 0.9897 0
M  V30 149 H 9.8882 -3.7803 -0.7320 0
M  V30 150 H 9.9778 -5.3968 -0.0074 0
M  V30 151 H 7.6564 -3.0178 -1.1342 0
M  V30 152 N 2.6122 -2.4011 -2.5271 0
M  V30 153 C 2.4994 -3.3738 -3.3556 0
M  V30 154 C 3.3734 -4.5155 -3.3417 0
M  V30 155 C 3.2645 -5.5144 -4.3177 0
M  V30 156 C 4.1034 -6.6096 -4.2675 0
M  V30 157 C 5.0383 -6.7102 -3.2310 0
M  V30 158 C 5.9500 -7.8650 -3.1265 0
M  V30 159 C 5.0698 -5.6546 -2.3027 0
M  V30 160 N 4.2811 -4.5952 -2.3499 0
M  V30 161 H 1.7205 -3.3747 -4.1198 0
M  V30 162 H 2.5372 -5.4192 -5.1094 0
M  V30 163 H 4.0434 -7.3845 -5.0173 0
M  V30 164 H 5.3807 -8.7911 -3.0278 0
M  V30 165 H 6.6324 -7.7821 -2.2860 0
M  V30 166 H 6.5271 -7.9830 -4.0452 0
M  V30 167 H 5.7829 -5.6919 -1.4910 0
M  V30 168 N 4.6032 -0.6387 -0.5892 0
M  V30 169 C 5.5471 -0.0776 -1.2522 0
M  V30 170 C 6.2510 -0.7382 -2.3178 0
M  V30 171 C 7.3301 -0.1161 -2.9588 0
M  V30 172 C 7.9751 -0.7664 -3.9916 0
M  V30 173 C 7.5282 -2.0310 -4.3910 0
M  V30 174 C 8.1772 -2.7632 -5.4948 0
M  V30 175 C 6.4388 -2.5695 -3.6837 0
M  V30 176 N 5.8235 -1.9616 -2.6845 0
M  V30 177 H 5.8609 0.9437 -1.0300 0
M  V30 178 H 7.6605 0.8595 -2.6366 0
M  V30 179 H 8.8167 -0.3089 -4.4906 0
M  V30 180 H 7.7314 -3.7383 -5.6666 0
M  V30 181 H 9.2435 -2.8873 -5.2984 0
M  V30 182 H 8.1240 -2.1840 -6.4186 0
M  V30 183 H 6.0679 -3.5472 -3.9581 0
M  V30 184 Zn 0.8918 4.0124 -1.1858 0 CHG=2
M  V30 185 N -1.0090 3.1072 -0.4690 0
M  V30 186 C -1.9847 3.6579 -1.0936 0
M  V30 187 C -1.7940 4.6192 -2.1457 0
M  V30 188 C -2.8895 5.2564 -2.7427 0
M  V30 189 C -2.6774 6.1602 -3.7643 0
M  V30 190 C -1.3706 6.4117 -4.1972 0
M  V30 191 C -1.0916 7.3602 -5.2917 0
M  V30 192 C -0.3404 5.7229 -3.5326 0
M  V30 193 N -0.5315 4.8670 -2.5440 0
M  V30 194 H -3.0195 3.4146 -0.8472 0
M  V30 195 H -3.8900 5.0495 -2.3953 0
M  V30 196 H -3.5076 6.6710 -4.2293 0
M  V30 197 H -1.5124 8.3415 -5.0660 0
M  V30 198 H -1.5913 7.0408 -6.2082 0
M  V30 199 H -0.0294 7.4659 -5.4906 0
M  V30 200 H 0.6836 5.8949 -3.8334 0
M  V30 201 N 2.1082 3.3549 0.5559 0
M  V30 202 C 2.2795 4.3580 1.3366 0
M  V30 203 C 1.6657 5.6381 1.1080 0
M  V30 204 C 1.9475 6.7279 1.9419 0
M  V30 205 C 1.3284 7.9399 1.7105 0
M  V30 206 C 0.4165 8.0536 0.6551 0
M  V30 207 C -0.2786 9.3235 0.3724 0
M  V30 208 C 0.2038 6.9026 -0.1242 0
M  V30 209 N 0.8018 5.7419 0.0800 0
M  V30 210 H 2.9104 4.2796 2.2235 0
M  V30 211 H 2.6538 6.6208 2.7508 0
M  V30 212 H 1.5413 8.7953 2.3344 0
M  V30 213 H -0.8694 9.6340 1.2363 0
M  V30 214 H -0.9314 9.2573 -0.4927 0
M  V30 215 H 0.4412 10.1287 0.2164 0
M  V30 216 H -0.4885 6.9518 -0.9530 0
M  V30 217 N 1.4594 2.3057 -2.4931 0
M  V30 218 C 2.3355 2.7113 -3.3377 0
M  V30 219 C 2.8867 4.0391 -3.3125 0
M  V30 220 C 3.7789 4.4645 -4.3052 0
M  V30 221 C 4.3069 5.7386 -4.2452 0
M  V30 222 C 3.9532 6.5781 -3.1829 0
M  V30 223 C 4.4967 7.9445 -3.0680 0
M  V30 224 C 3.0503 6.0578 -2.2389 0
M  V30 225 N 2.5281 4.8451 -2.2948 0
M  V30 226 H 2.7050 2.0528 -4.1253 0
M  V30 227 H 4.0396 3.8028 -5.1170 0
M  V30 228 H 4.9868 6.0897 -5.0073 0
M  V30 229 H 4.1064 8.4768 -2.2059 0
M  V30 230 H 4.2828 8.5199 -3.9703 0
M  V30 231 H 5.5859 7.9161 -3.0008 0
M  V30 232 H 2.7476 6.6777 -1.4066 0
M  V30 END ATOM
M  V30 BEGIN BOND
M  V30 1 2 1 2
M  V30 2 1 2 3
M  V30 3 2 3 4
M  V30 4 1 4 5
M  V30 5 2 5 6
M  V30 6 1 6 1
M  V30 7 1 2 7
M  V30 8 1 4 8
M  V30 9 1 6 9
M  V30 10 2 10 11
M  V30 11 1 11 12
M  V30 12 2 12 13
M  V30 13 1 13 14
M  V30 14 2 14 15
M  V30 15 1 15 10
M  V30 16 1 11 16
M  V30 17 1 13 17
M  V30 18 1 15 18
M  V30 19 2 19 20
M  V30 20 1 20 21
M  V30 21 2 21 22
M  V30 22 1 22 23
M  V30 23 2 23 24
M  V30 24 1 24 19
M  V30 25 1 20 25
M  V30 26 1 22 26
M  V30 27 1 24 27
M  V30 28 2 28 29
M  V30 29 1 29 30
M  V30 30 2 30 31
M  V30 31 1 31 32
M  V30 32 2 32 33
M  V30 33 1 33 28
M  V30 34 1 29 34
M  V30 35 1 31 35
M  V30 36 1 33 36
M  V30 37 2 38 39
M  V30 38 1 39 40
M  V30 39 2 40 41
M  V30 40 1 41 42
M  V30 41 2 42 43
M  V30 42 1 43 44
M  V30 43 1 43 45
M  V30 44 2 45 46
M  V30 45 1 46 40
M  V30 46 1 39 47
M  V30 47 1 41 48
M  V30 48 1 42 49
M  V30 49 1 44 50
M  V30 50 1 44 51
M  V30 51 1 44 52
M  V30 52 1 45 53
M  V30 53 2 54 55
M  V30 54 1 55 56
M  V30 55 2 56 57
M  V30 56 1 57 58
M  V30 57 2 58 59
M  V30 58 1 59 60
M  V30 59 1 59 61
M  V30 60 2 61 62
M  V30 61 1 62 56
M  V30 62 1 55 63
M  V30 63 1 57 64
M  V30 64 1 58 65
M  V30 65 1 60 66
M  V30 66 1 60 67
M  V30 67 1 60 68
M  V30 68 1 61 69
M  V30 69 2 70 71
M  V30 70 1 71 72
M  V30 71 2 72 73
M  V30 72 1 73 74
M  V30 73 2 74 75
M  V30 74 1 75 76
M  V30 75 1 75 77
M  V30 76 2 77 78
M  V30 77 1 78 72
M  V30 78 1 71 79
M  V30 79 1 73 80
M  V30 80 1 74 81
M  V30 81 1 76 82
M  V30 82 1 76 83
M  V30 83 1 76 84
M  V30 84 1 77 85
M  V30 85 9 38 37
M  V30 86 9 46 37
M  V30 87 9 70 37
M  V30 88 9 78 37
M  V30 89 9 54 37
M  V30 90 9 62 37
M  V30 91 2 87 88
M  V30 92 1 88 89
M  V30 93 2 89 90
M  V30 94 1 90 91
M  V30 95 2 91 92
M  V30 96 1 92 93
M  V30 97 1 92 94
M  V30 98 2 94 95
M  V30 99 1 95 89
M  V30 100 1 88 96
M  V30 101 1 90 97
M  V30 102 1 91 98
M  V30 103 1 93 99
M  V30 104 1 93 100
M  V30 105 1 93 101
M  V30 106 1 94 102
M  V30 107 2 103 104
M  V30 108 1 104 105
M  V30 109 2 105 106
M  V30 110 1 106 107
M  V30 111 2 107 108
M  V30 112 1 108 109
M  V30 113 1 108 110
M  V30 114 2 110 111
M  V30 115 1 111 105
M  V30 116 1 104 112
M  V30 117 1 106 113
M  V30 118 1 107 114
M  V30 119 1 109 115
M  V30 120 1 109 116
M  V30 121 1 109 117
M  V30 122 1 110 118
M  V30 123 2 119 120
M  V30 124 1 120 121
M  V30 125 2 121 122
M  V30 126 1 122 123
M  V30 127 2 123 124
M  V30 128 1 124 125
M  V30 129 1 124 126
M  V30 130 2 126 127
M  V30 131 1 127 121
M  V30 132 1 120 128
M  V30 133 1 122 129
M  V30 134 1 123 130
M  V30 135 1 125 131
M  V30 136 1 125 132
M  V30 137 1 125 133
M  V30 138 1 126 134
M  V30 139 9 87 86
M  V30 140 9 95 86
M  V30 141 9 119 86
M  V30 142 9 127 86
M  V30 143 9 103 86
M  V30 144 9 111 86
M  V30 145 2 136 137
M  V30 146 1 137 138
M  V30 147 2 138 139
M  V30 148 1 139 140
M  V30 149 2 140 141
M  V30 150 1 141 142
M  V30 151 1 141 143
M  V30 152 2 143 144
M  V30 153 1 144 138
M  V30 154 1 137 145
M  V30 155 1 139 146
M  V30 156 1 140 147
M  V30 157 1 142 148
M  V30 158 1 142 149
M  V30 159 1 142 150
M  V30 160 1 143 151
M  V30 161 2 152 153
M  V30 162 1 153 154
M  V30 163 2 154 155
M  V30 164 1 155 156
M  V30 165 2 156 157
M  V30 166 1 157 158
M  V30 167 1 157 159
M  V30 168 2 159 160
M  V30 169 1 160 154
M  V30 170 1 153 161
M  V30 171 1 155 162
M  V30 172 1 156 163
M  V30 173 1 158 164
M  V30 174 1 158 165
M  V30 175 1 158 166
M  V30 176 1 159 167
M  V30 177 2 168 169
M  V30 178 1 169 170
M  V30 179 2 170 171
M  V30 180 1 171 172
M  V30 181 2 172 173
M  V30 182 1 173 174
M  V30 183 1 173 175
M  V30 184 2 175 176
M  V30 185 1 176 170
M  V30 186 1 169 177
M  V30 187 1 171 178
M  V30 188 1 172 179
M  V30 189 1 174 180
M  V30 190 1 174 181
M  V30 191 1 174 182
M  V30 192 1 175 183
M  V30 193 9 136 135
M  V30 194 9 144 135
M  V30 195 9 168 135
M  V30 196 9 176 135
M  V30 197 9 152 135
M  V30 198 9 160 135
M  V30 199 2 185 186
M  V30 200 1 186 187
M  V30 201 2 187 188
M  V30 202 1 188 189
M  V30 203 2 189 190
M  V30 204 1 190 191
M  V30 205 1 190 192
M  V30 206 2 192 193
M  V30 207 1 193 187
M  V30 208 1 186 194
M  V30 209 1 188 195
M  V30 210 1 189 196
M  V30 211 1 191 197
M  V30 212 1 191 198
M  V30 213 1 191 199
M  V30 214 1 192 200
M  V30 215 2 201 202
M  V30 216 1 202 203
M  V30 217 2 203 204
M  V30 218 1 204 205
M  V30 219 2 205 206
M  V30 220 1 206 207
M  V30 221 1 206 208
M  V30 222 2 208 209
M  V30 223 1 209 203
M  V30 224 1 202 210
M  V30 225 1 204 211
M  V30 226 1 205 212
M  V30 227 1 207 213
M  V30 228 1 207 214
M  V30 229 1 207 215
M  V30 230 1 208 216
M  V30 231 2 217 218
M  V30 232 1 218 219
M  V30 233 2 219 220
M  V30 234 1 220 221
M  V30 235 2 221 222
M  V30 236 1 222 223
M  V30 237 1 222 224
M  V30 238 2 224 225
M  V30 239 1 225 219
M  V30 240 1 218 226
M  V30 241 1 220 227
M  V30 242 1 221 228
M  V30 243 1 223 229
M  V30 244 1 223 230
M  V30 245 1 223 231
M  V30 246 1 224 232
M  V30 247 9 185 184
M  V30 248 9 193 184
M  V30 249 9 217 184
M  V30 250 9 225 184
M  V30 251 9 201 184
M  V30 252 9 209 184
M  V30 253 1 1 38
M  V30 254 1 10 70
M  V30 255 1 19 54
M  V30 256 1 5 87
M  V30 257 1 12 103
M  V30 258 1 28 119
M  V30 259 1 3 136
M  V30 260 1 23 168
M  V30 261 1 30 152
M  V30 262 1 14 185
M  V30 263 1 21 201
M  V30 264 1 32 217
M  V30 END BOND
M  V30 END CTAB
M  END

$$$$
