
     RDKit          3D

  0  0  0  0  0  0  0  0  0  0999 V3000
M  V30 BEGIN CTAB
M  V30 COUNTS 196 228 0 0 0
M  V30 BEGIN ATOM
M  V30 1 C -1.2523 -2.6655 2.7344 0
M  V30 2 C 0.1031 -2.7506 2.4294 0
M  V30 3 C 0.5189 -3.1037 1.1454 0
M  V30 4 C -0.4330 -3.3845 0.1695 0
M  V30 5 C -1.7941 -3.3023 0.4639 0
M  V30 6 C -2.1976 -2.9492 1.7484 0
M  V30 7 H 0.8235 -2.5623 3.2085 0
M  V30 8 H -0.0993 -3.6892 -0.8090 0
M  V30 9 H -3.2514 -2.9224 1.9728 0
M  V30 10 C -2.8034 0.9887 2.8974 0
M  V30 11 C -3.5424 -0.0860 2.4112 0
M  V30 12 C -4.0260 -0.0782 1.1027 0
M  V30 13 C -3.7760 1.0208 0.2860 0
M  V30 14 C -3.0366 2.1034 0.7628 0
M  V30 15 C -2.5589 2.0848 2.0700 0
M  V30 16 H -3.7536 -0.9118 3.0708 0
M  V30 17 H -4.1838 1.0299 -0.7116 0
M  V30 18 H -2.0183 2.9417 2.4376 0
M  V30 19 C 1.1348 0.4922 3.0785 0
M  V30 20 C 0.5789 1.7276 2.7590 0
M  V30 21 C 0.8552 2.3321 1.5325 0
M  V30 22 C 1.7042 1.6969 0.6308 0
M  V30 23 C 2.2669 0.4585 0.9405 0
M  V30 24 C 1.9843 -0.1354 2.1672 0
M  V30 25 H -0.0485 2.2182 3.4851 0
M  V30 26 H 1.9370 2.1898 -0.2989 0
M  V30 27 H 2.4520 -1.0758 2.4088 0
M  V30 28 C -2.0242 -0.4643 -2.3079 0
M  V30 29 C -0.9940 -1.4002 -2.3196 0
M  V30 30 C 0.3355 -0.9908 -2.2149 0
M  V30 31 C 0.6288 0.3659 -2.1112 0
M  V30 32 C -0.3956 1.3127 -2.0983 0
M  V30 33 C -1.7185 0.8928 -2.2035 0
M  V30 34 H -1.2409 -2.4429 -2.4350 0
M  V30 35 H 1.6612 0.6720 -2.0652 0
M  V30 36 H -2.4989 1.6357 -2.2268 0
M  V30 37 Zn -1.1070 -0.5609 5.3527 0 CHG=2
M  V30 38 C -3.2959 -1.0646 7.5556 0
M  V30 39 N -2.7528 -1.4380 6.4054 0
M  V30 40 C -3.0736 -2.6532 5.9194 0
M  V30 41 C -2.5096 -3.0213 4.6401 0
M  V30 42 N -1.6558 -2.2928 4.0252 0
M  V30 43 C -3.9305 -3.5245 6.5950 0
M  V30 44 C -4.4789 -3.1315 7.8106 0
M  V30 45 C -4.1636 -1.8701 8.2921 0
M  V30 46 H -3.0356 -0.0831 7.9236 0
M  V30 47 H -2.8575 -3.9652 4.2174 0
M  V30 48 H -4.1547 -4.4973 6.1841 0
M  V30 49 H -5.1335 -3.7897 8.3630 0
M  V30 50 H -4.5728 -1.5135 9.2252 0
M  V30 51 C 0.1023 -2.3318 7.6549 0
M  V30 52 N 0.3137 -1.6141 6.5606 0
M  V30 53 C 1.5824 -1.2680 6.2664 0
M  V30 54 C 1.7968 -0.5275 5.0434 0
M  V30 55 N 0.8349 -0.1117 4.3086 0
M  V30 56 C 2.6599 -1.6197 7.0820 0
M  V30 57 C 2.4252 -2.3552 8.2381 0
M  V30 58 C 1.1203 -2.7285 8.5213 0
M  V30 59 H -0.9196 -2.6090 7.8683 0
M  V30 60 H 2.8374 -0.3415 4.7727 0
M  V30 61 H 3.6624 -1.3131 6.8241 0
M  V30 62 H 3.2370 -2.6295 8.8959 0
M  V30 63 H 0.8873 -3.3098 9.4005 0
M  V30 64 C -0.5093 1.2387 7.8631 0
M  V30 65 N -1.0768 1.1271 6.6703 0
M  V30 66 C -1.9619 2.0733 6.2999 0
M  V30 67 C -2.5322 1.9602 4.9762 0
M  V30 68 N -2.3090 0.9598 4.2099 0
M  V30 69 C -2.3088 3.1379 7.1342 0
M  V30 70 C -1.7232 3.2347 8.3914 0
M  V30 71 C -0.7951 2.2711 8.7556 0
M  V30 72 H 0.2056 0.4770 8.1379 0
M  V30 73 H -3.1698 2.7864 4.6576 0
M  V30 74 H -3.0330 3.8706 6.8115 0
M  V30 75 H -1.9826 4.0389 9.0642 0
M  V30 76 H -0.3038 2.3082 9.7161 0
M  V30 77 Zn -4.5477 -2.4202 -1.2526 0 CHG=2
M  V30 78 C -5.1668 -4.2326 -3.7484 0
M  V30 79 N -4.3920 -3.9903 -2.7003 0
M  V30 80 C -3.5375 -4.9559 -2.3088 0
M  V30 81 C -2.6671 -4.6535 -1.1947 0
M  V30 82 N -2.7558 -3.5683 -0.5221 0
M  V30 83 C -3.4636 -6.1928 -2.9526 0
M  V30 84 C -4.2948 -6.4444 -4.0382 0
M  V30 85 C -5.1540 -5.4372 -4.4504 0
M  V30 86 H -5.8372 -3.4428 -4.0540 0
M  V30 87 H -1.9164 -5.4084 -0.9553 0
M  V30 88 H -2.7777 -6.9497 -2.6033 0
M  V30 89 H -4.2703 -7.3969 -4.5470 0
M  V30 90 H -5.8110 -5.5788 -5.2951 0
M  V30 91 C -6.6471 -4.6251 -0.4590 0
M  V30 92 N -6.0128 -3.5080 -0.1316 0
M  V30 93 C -6.4849 -2.7944 0.9095 0
M  V30 94 C -5.7502 -1.6060 1.2810 0
M  V30 95 N -4.7565 -1.1671 0.6044 0
M  V30 96 C -7.6190 -3.1817 1.6263 0
M  V30 97 C -8.2888 -4.3442 1.2622 0
M  V30 98 C -7.7828 -5.0860 0.2056 0
M  V30 99 H -6.2476 -5.1891 -1.2890 0
M  V30 100 H -6.0896 -1.0964 2.1843 0
M  V30 101 H -7.9788 -2.5784 2.4461 0
M  V30 102 H -9.1769 -4.6613 1.7889 0
M  V30 103 H -8.2596 -6.0021 -0.1083 0
M  V30 104 C -7.3655 -1.6642 -2.4303 0
M  V30 105 N -6.0619 -1.4257 -2.3947 0
M  V30 106 C -5.5363 -0.6393 -3.3545 0
M  V30 107 C -4.1221 -0.3515 -3.2695 0
M  V30 108 N -3.3574 -0.8916 -2.3970 0
M  V30 109 C -6.3112 -0.0967 -4.3817 0
M  V30 110 C -7.6738 -0.3695 -4.4215 0
M  V30 111 C -8.2116 -1.1592 -3.4168 0
M  V30 112 H -7.7702 -2.2876 -1.6466 0
M  V30 113 H -3.7348 0.3640 -3.9967 0
M  V30 114 H -5.8550 0.5174 -5.1434 0
M  V30 115 H -8.2959 0.0245 -5.2119 0
M  V30 116 H -9.2658 -1.3903 -3.3963 0
M  V30 117 Zn 3.1148 -2.2748 -0.8244 0 CHG=2
M  V30 118 C 5.9342 -3.0535 0.3350 0
M  V30 119 N 4.6164 -3.0711 0.4786 0
M  V30 120 C 4.0929 -3.8885 1.4133 0
M  V30 121 C 2.6581 -3.8567 1.5875 0
M  V30 122 N 1.8841 -3.1741 0.8307 0
M  V30 123 C 4.8864 -4.7205 2.2058 0
M  V30 124 C 6.2659 -4.7093 2.0335 0
M  V30 125 C 6.7990 -3.8478 1.0868 0
M  V30 126 H 6.3360 -2.3842 -0.4115 0
M  V30 127 H 2.2630 -4.4513 2.4128 0
M  V30 128 H 4.4327 -5.3742 2.9354 0
M  V30 129 H 6.9040 -5.3522 2.6220 0
M  V30 130 H 7.8645 -3.7933 0.9231 0
M  V30 131 C 4.0272 -5.0308 -2.0364 0
M  V30 132 N 3.1721 -4.0183 -2.0664 0
M  V30 133 C 2.3721 -3.8976 -3.1441 0
M  V30 134 C 1.4129 -2.8160 -3.1349 0
M  V30 135 N 1.3748 -1.9329 -2.2095 0
M  V30 136 C 2.4348 -4.7824 -4.2226 0
M  V30 137 C 3.3492 -5.8292 -4.1904 0
M  V30 138 C 4.1516 -5.9613 -3.0674 0
M  V30 139 H 4.6522 -5.1175 -1.1598 0
M  V30 140 H 0.7095 -2.7931 -3.9688 0
M  V30 141 H 1.7891 -4.6477 -5.0772 0
M  V30 142 H 3.4304 -6.5208 -5.0161 0
M  V30 143 H 4.8691 -6.7640 -2.9888 0
M  V30 144 C 5.3248 -1.7847 -3.0092 0
M  V30 145 N 4.5866 -1.2877 -2.0266 0
M  V30 146 C 4.9367 -0.0909 -1.5155 0
M  V30 147 C 4.0902 0.4559 -0.4789 0
M  V30 148 N 3.1094 -0.1921 0.0269 0
M  V30 149 C 6.0511 0.6172 -1.9698 0
M  V30 150 C 6.8306 0.0778 -2.9868 0
M  V30 151 C 6.4500 -1.1423 -3.5245 0
M  V30 152 H 5.0223 -2.7395 -3.4135 0
M  V30 153 H 4.3321 1.4670 -0.1473 0
M  V30 154 H 6.3117 1.5670 -1.5277 0
M  V30 155 H 7.7067 0.5957 -3.3488 0
M  V30 156 H 7.0150 -1.5975 -4.3236 0
M  V30 157 Zn -0.8674 4.2837 -0.5960 0 CHG=2
M  V30 158 C -2.0778 6.0791 -2.8785 0
M  V30 159 N -2.2751 5.1397 -1.9643 0
M  V30 160 C -3.5458 4.8240 -1.6456 0
M  V30 161 C -3.7397 3.7635 -0.6825 0
M  V30 162 N -2.7688 3.2051 -0.0633 0
M  V30 163 C -4.6419 5.4653 -2.2264 0
M  V30 164 C -4.4239 6.4632 -3.1695 0
M  V30 165 C -3.1143 6.7655 -3.5099 0
M  V30 166 H -1.0529 6.3108 -3.1286 0
M  V30 167 H -4.7726 3.4562 -0.5104 0
M  V30 168 H -5.6469 5.1977 -1.9371 0
M  V30 169 H -5.2517 6.9867 -3.6251 0
M  V30 170 H -2.8926 7.5243 -4.2451 0
M  V30 171 C -1.7597 7.0524 0.6025 0
M  V30 172 N -1.1111 5.9094 0.7765 0
M  V30 173 C -0.2801 5.8081 1.8325 0
M  V30 174 C 0.3795 4.5373 2.0324 0
M  V30 175 N 0.2829 3.5692 1.2009 0
M  V30 176 C -0.0697 6.8651 2.7204 0
M  V30 177 C -0.7393 8.0665 2.5174 0
M  V30 178 C -1.6113 8.1549 1.4431 0
M  V30 179 H -2.4296 7.1109 -0.2428 0
M  V30 180 H 0.9703 4.4430 2.9450 0
M  V30 181 H 0.6147 6.7547 3.5479 0
M  V30 182 H -0.5857 8.9062 3.1793 0
M  V30 183 H -2.1638 9.0618 1.2495 0
M  V30 184 C 1.2117 6.5012 -1.4068 0
M  V30 185 N 0.7722 5.2609 -1.5671 0
M  V30 186 C 1.2159 4.5652 -2.6324 0
M  V30 187 C 0.7633 3.1983 -2.7619 0
M  V30 188 N -0.1041 2.6794 -1.9769 0
M  V30 189 C 2.0937 5.1146 -3.5692 0
M  V30 190 C 2.5328 6.4232 -3.4031 0
M  V30 191 C 2.0913 7.1242 -2.2913 0
M  V30 192 H 0.8537 7.0391 -0.5413 0
M  V30 193 H 1.2091 2.6214 -3.5739 0
M  V30 194 H 2.4178 4.5339 -4.4196 0
M  V30 195 H 3.2006 6.8797 -4.1190 0
M  V30 196 H 2.4126 8.1389 -2.1109 0
M  V30 END ATOM
M  V30 BEGIN BOND
M  V30 1 2 1 2
M  V30 2 1 2 3
M  V30 3 2 3 4
M  V30 4 1 4 5
M  V30 5 2 5 6
M  V30 6 1 6 1
M  V30 7 1 2 7
M  V30 8 1 4 8
M  V30 9 1 6 9
M  V30 10 2 10 11
M  V30 11 1 11 12
M  V30 12 2 12 13
M  V30 13 1 13 14
M  V30 14 2 14 15
M  V30 15 1 15 10
M  V30 16 1 11 16
M  V30 17 1 13 17
M  V30 18 1 15 18
M  V30 19 2 19 20
M  V30 20 1 20 21
M  V30 21 2 21 22
M  V30 22 1 22 23
M  V30 23 2 23 24
M  V30 24 1 24 19
M  V30 25 1 20 25
M  V30 26 1 22 26
M  V30 27 1 24 27
M  V30 28 2 28 29
M  V30 29 1 29 30
M  V30 30 2 30 31
M  V30 31 1 31 32
M  V30 32 2 32 33
M  V30 33 1 33 28
M  V30 34 1 29 34
M  V30 35 1 31 35
M  V30 36 1 33 36
M  V30 37 2 38 39
M  V30 38 1 39 40
M  V30 39 1 40 41
M  V30 40 2 41 42
M  V30 41 2 40 43
M  V30 42 1 43 44
M  V30 43 2 44 45
M  V30 44 1 45 38
M  V30 45 1 38 46
M  V30 46 1 41 47
M  V30 47 1 43 48
M  V30 48 1 44 49
M  V30 49 1 45 50
M  V30 50 2 51 52
M  V30 51 1 52 53
M  V30 52 1 53 54
M  V30 53 2 54 55
M  V30 54 2 53 56
M  V30 55 1 56 57
M  V30 56 2 57 58
M  V30 57 1 58 51
M  V30 58 1 51 59
M  V30 59 1 54 60
M  V30 60 1 56 61
M  V30 61 1 57 62
M  V30 62 1 58 63
M  V30 63 2 64 65
M  V30 64 1 65 66
M  V30 65 1 66 67
M  V30 66 2 67 68
M  V30 67 2 66 69
M  V30 68 1 69 70
M  V30 69 2 70 71
M  V30 70 1 71 64
M  V30 71 1 64 72
M  V30 72 1 67 73
M  V30 73 1 69 74
M  V30 74 1 70 75
M  V30 75 1 71 76
M  V30 76 9 42 37
M  V30 77 9 39 37
M  V30 78 9 68 37
M  V30 79 9 65 37
M  V30 80 9 55 37
M  V30 81 9 52 37
M  V30 82 2 78 79
M  V30 83 1 79 80
M  V30 84 1 80 81
M  V30 85 2 81 82
M  V30 86 2 80 83
M  V30 87 1 83 84
M  V30 88 2 84 85
M  V30 89 1 85 78
M  V30 90 1 78 86
M  V30 91 1 81 87
M  V30 92 1 83 88
M  V30 93 1 84 89
M  V30 94 1 85 90
M  V30 95 2 91 92
M  V30 96 1 92 93
M  V30 97 1 93 94
M  V30 98 2 94 95
M  V30 99 2 93 96
M  V30 100 1 96 97
M  V30 101 2 97 98
M  V30 102 1 98 91
M  V30 103 1 91 99
M  V30 104 1 94 100
M  V30 105 1 96 101
M  V30 106 1 97 102
M  V30 107 1 98 103
M  V30 108 2 104 105
M  V30 109 1 105 106
M  V30 110 1 106 107
M  V30 111 2 107 108
M  V30 112 2 106 109
M  V30 113 1 109 110
M  V30 114 2 110 111
M  V30 115 1 111 104
M  V30 116 1 104 112
M  V30 117 1 107 113
M  V30 118 1 109 114
M  V30 119 1 110 115
M  V30 120 1 111 116
M  V30 121 9 82 77
M  V30 122 9 79 77
M  V30 123 9 108 77
M  V30 124 9 105 77
M  V30 125 9 95 77
M  V30 126 9 92 77
M  V30 127 2 118 119
M  V30 128 1 119 120
M  V30 129 1 120 121
M  V30 130 2 121 122
M  V30 131 2 120 123
M  V30 132 1 123 124
M  V30 133 2 124 125
M  V30 134 1 125 118
M  V30 135 1 118 126
M  V30 136 1 121 127
M  V30 137 1 123 128
M  V30 138 1 124 129
M  V30 139 1 125 130
M  V30 140 2 131 132
M  V30 141 1 132 133
M  V30 142 1 133 134
M  V30 143 2 134 135
M  V30 144 2 133 136
M  V30 145 1 136 137
M  V30 146 2 137 138
M  V30 147 1 138 131
M  V30 148 1 131 139
M  V30 149 1 134 140
M  V30 150 1 136 141
M  V30 151 1 137 142
M  V30 152 1 138 143
M  V30 153 2 144 145
M  V30 154 1 145 146
M  V30 155 1 146 147
M  V30 156 2 147 148
M  V30 157 2 146 149
M  V30 158 1 149 150
M  V30 159 2 150 151
M  V30 160 1 151 144
M  V30 161 1 144 152
M  V30 162 1 147 153
M  V30 163 1 149 154
M  V30 164 1 150 155
M  V30 165 1 151 156
M  V30 166 9 122 117
M  V30 167 9 119 117
M  V30 168 9 148 117
M  V30 169 9 145 117
M  V30 170 9 135 117
M  V30 171 9 132 117
M  V30 172 2 158 159
M  V30 173 1 159 160
M  V30 174 1 160 161
M  V30 175 2 161 162
M  V30 176 2 160 163
M  V30 177 1 163 164
M  V30 178 2 164 165
M  V30 179 1 165 158
M  V30 180 1 158 166
M  V30 181 1 161 167
M  V30 182 1 163 168
M  V30 183 1 164 169
M  V30 184 1 165 170
M  V30 185 2 171 172
M  V30 186 1 172 173
M  V30 187 1 173 174
M  V30 188 2 174 175
M  V30 189 2 173 176
M  V30 190 1 176 177
M  V30 191 2 177 178
M  V30 192 1 178 171
M  V30 193 1 171 179
M  V30 194 1 174 180
M  V30 195 1 176 181
M  V30 196 1 177 182
M  V30 197 1 178 183
M  V30 198 2 184 185
M  V30 199 1 185 186
M  V30 200 1 186 187
M  V30 201 2 187 188
M  V30 202 2 186 189
M  V30 203 1 189 190
M  V30 204 2 190 191
M  V30 205 1 191 184
M  V30 206 1 184 192
M  V30 207 1 187 193
M  V30 208 1 189 194
M  V30 209 1 190 195
M  V30 210 1 191 196
M  V30 211 9 162 157
M  V30 212 9 159 157
M  V30 213 9 188 157
M  V30 214 9 185 157
M  V30 215 9 175 157
M  V30 216 9 172 157
M  V30 217 1 1 42
M  V30 218 1 10 68
M  V30 219 1 19 55
M  V30 220 1 5 82
M  V30 221 1 12 95
M  V30 222 1 28 108
M  V30 223 1 3 122
M  V30 224 1 23 148
M  V30 225 1 30 135
M  V30 226 1 14 162
M  V30 227 1 21 175
M  V30 228 1 32 188
M  V30 END BOND
M  V30 END CTAB
M  END

$$$$
