196

C -1.252300 -2.665500 2.734400
C 0.103100 -2.750600 2.429400
C 0.518900 -3.103700 1.145400
C -0.433000 -3.384500 0.169500
C -1.794100 -3.302300 0.463900
C -2.197600 -2.949200 1.748400
H 0.823500 -2.562300 3.208500
H -0.099300 -3.689200 -0.809000
H -3.251400 -2.922400 1.972800
C -2.803400 0.988700 2.897400
C -3.542400 -0.086000 2.411200
C -4.026000 -0.078200 1.102700
C -3.776000 1.020800 0.286000
C -3.036600 2.103400 0.762800
C -2.558900 2.084800 2.070000
H -3.753600 -0.911800 3.070800
H -4.183800 1.029900 -0.711600
H -2.018300 2.941700 2.437600
C 1.134800 0.492200 3.078500
C 0.578900 1.727600 2.759000
C 0.855200 2.332100 1.532500
C 1.704200 1.696900 0.630800
C 2.266900 0.458500 0.940500
C 1.984300 -0.135400 2.167200
H -0.048500 2.218200 3.485100
H 1.937000 2.189800 -0.298900
H 2.452000 -1.075800 2.408800
C -2.024200 -0.464300 -2.307900
C -0.994000 -1.400200 -2.319600
C 0.335500 -0.990800 -2.214900
C 0.628800 0.365900 -2.111200
C -0.395600 1.312700 -2.098300
C -1.718500 0.892800 -2.203500
H -1.240900 -2.442900 -2.435000
H 1.661200 0.672000 -2.065200
H -2.498900 1.635700 -2.226800
Zn -1.107000 -0.560900 5.352700
C -3.295900 -1.064600 7.555600
N -2.752800 -1.438000 6.405400
C -3.073600 -2.653200 5.919400
C -2.509600 -3.021300 4.640100
N -1.655800 -2.292800 4.025200
C -3.930500 -3.524500 6.595000
C -4.478900 -3.131500 7.810600
C -4.163600 -1.870100 8.292100
H -3.035600 -0.083100 7.923600
H -2.857500 -3.965200 4.217400
H -4.154700 -4.497300 6.184100
H -5.133500 -3.789700 8.363000
H -4.572800 -1.513500 9.225200
C 0.102300 -2.331800 7.654900
N 0.313700 -1.614100 6.560600
C 1.582400 -1.268000 6.266400
C 1.796800 -0.527500 5.043400
N 0.834900 -0.111700 4.308600
C 2.659900 -1.619700 7.082000
C 2.425200 -2.355200 8.238100
C 1.120300 -2.728500 8.521300
H -0.919600 -2.609000 7.868300
H 2.837400 -0.341500 4.772700
H 3.662400 -1.313100 6.824100
H 3.237000 -2.629500 8.895900
H 0.887300 -3.309800 9.400500
C -0.509300 1.238700 7.863100
N -1.076800 1.127100 6.670300
C -1.961900 2.073300 6.299900
C -2.532200 1.960200 4.976200
N -2.309000 0.959800 4.209900
C -2.308800 3.137900 7.134200
C -1.723200 3.234700 8.391400
C -0.795100 2.271100 8.755600
H 0.205600 0.477000 8.137900
H -3.169800 2.786400 4.657600
H -3.033000 3.870600 6.811500
H -1.982600 4.038900 9.064200
H -0.303800 2.308200 9.716100
Zn -4.547700 -2.420200 -1.252600
C -5.166800 -4.232600 -3.748400
N -4.392000 -3.990300 -2.700300
C -3.537500 -4.955900 -2.308800
C -2.667100 -4.653500 -1.194700
N -2.755800 -3.568300 -0.522100
C -3.463600 -6.192800 -2.952600
C -4.294800 -6.444400 -4.038200
C -5.154000 -5.437200 -4.450400
H -5.837200 -3.442800 -4.054000
H -1.916400 -5.408400 -0.955300
H -2.777700 -6.949700 -2.603300
H -4.270300 -7.396900 -4.547000
H -5.811000 -5.578800 -5.295100
C -6.647100 -4.625100 -0.459000
N -6.012800 -3.508000 -0.131600
C -6.484900 -2.794400 0.909500
C -5.750200 -1.606000 1.281000
N -4.756500 -1.167100 0.604400
C -7.619000 -3.181700 1.626300
C -8.288800 -4.344200 1.262200
C -7.782800 -5.086000 0.205600
H -6.247600 -5.189100 -1.289000
H -6.089600 -1.096400 2.184300
H -7.978800 -2.578400 2.446100
H -9.176900 -4.661300 1.788900
H -8.259600 -6.002100 -0.108300
C -7.365500 -1.664200 -2.430300
N -6.061900 -1.425700 -2.394700
C -5.536300 -0.639300 -3.354500
C -4.122100 -0.351500 -3.269500
N -3.357400 -0.891600 -2.397000
C -6.311200 -0.096700 -4.381700
C -7.673800 -0.369500 -4.421500
C -8.211600 -1.159200 -3.416800
H -7.770200 -2.287600 -1.646600
H -3.734800 0.364000 -3.996700
H -5.855000 0.517400 -5.143400
H -8.295900 0.024500 -5.211900
H -9.265800 -1.390300 -3.396300
Zn 3.114800 -2.274800 -0.824400
C 5.934200 -3.053500 0.335000
N 4.616400 -3.071100 0.478600
C 4.092900 -3.888500 1.413300
C 2.658100 -3.856700 1.587500
N 1.884100 -3.174100 0.830700
C 4.886400 -4.720500 2.205800
C 6.265900 -4.709300 2.033500
C 6.799000 -3.847800 1.086800
H 6.336000 -2.384200 -0.411500
H 2.263000 -4.451300 2.412800
H 4.432700 -5.374200 2.935400
H 6.904000 -5.352200 2.622000
H 7.864500 -3.793300 0.923100
C 4.027200 -5.030800 -2.036400
N 3.172100 -4.018300 -2.066400
C 2.372100 -3.897600 -3.144100
C 1.412900 -2.816000 -3.134900
N 1.374800 -1.932900 -2.209500
C 2.434800 -4.782400 -4.222600
C 3.349200 -5.829200 -4.190400
C 4.151600 -5.961300 -3.067400
H 4.652200 -5.117500 -1.159800
H 0.709500 -2.793100 -3.968800
H 1.789100 -4.647700 -5.077200
H 3.430400 -6.520800 -5.016100
H 4.869100 -6.764000 -2.988800
C 5.324800 -1.784700 -3.009200
N 4.586600 -1.287700 -2.026600
C 4.936700 -0.090900 -1.515500
C 4.090200 0.455900 -0.478900
N 3.109400 -0.192100 0.026900
C 6.051100 0.617200 -1.969800
C 6.830600 0.077800 -2.986800
C 6.450000 -1.142300 -3.524500
H 5.022300 -2.739500 -3.413500
H 4.332100 1.467000 -0.147300
H 6.311700 1.567000 -1.527700
H 7.706700 0.595700 -3.348800
H 7.015000 -1.597500 -4.323600
Zn -0.867400 4.283700 -0.596000
C -2.077800 6.079100 -2.878500
N -2.275100 5.139700 -1.964300
C -3.545800 4.824000 -1.645600
C -3.739700 3.763500 -0.682500
N -2.768800 3.205100 -0.063300
C -4.641900 5.465300 -2.226400
C -4.423900 6.463200 -3.169500
C -3.114300 6.765500 -3.509900
H -1.052900 6.310800 -3.128600
H -4.772600 3.456200 -0.510400
H -5.646900 5.197700 -1.937100
H -5.251700 6.986700 -3.625100
H -2.892600 7.524300 -4.245100
C -1.759700 7.052400 0.602500
N -1.111100 5.909400 0.776500
C -0.280100 5.808100 1.832500
C 0.379500 4.537300 2.032400
N 0.282900 3.569200 1.200900
C -0.069700 6.865100 2.720400
C -0.739300 8.066500 2.517400
C -1.611300 8.154900 1.443100
H -2.429600 7.110900 -0.242800
H 0.970300 4.443000 2.945000
H 0.614700 6.754700 3.547900
H -0.585700 8.906200 3.179300
H -2.163800 9.061800 1.249500
C 1.211700 6.501200 -1.406800
N 0.772200 5.260900 -1.567100
C 1.215900 4.565200 -2.632400
C 0.763300 3.198300 -2.761900
N -0.104100 2.679400 -1.976900
C 2.093700 5.114600 -3.569200
C 2.532800 6.423200 -3.403100
C 2.091300 7.124200 -2.291300
H 0.853700 7.039100 -0.541300
H 1.209100 2.621400 -3.573900
H 2.417800 4.533900 -4.419600
H 3.200600 6.879700 -4.119000
H 2.412600 8.138900 -2.110900
