232

C 0.342200 -2.633100 2.602500
C 1.663400 -2.825300 2.209700
C 1.962300 -3.281600 0.925800
C 0.925500 -3.561700 0.040800
C -0.403000 -3.373100 0.422300
C -0.688000 -2.917700 1.706100
H 2.448700 -2.630900 2.921300
H 1.168400 -3.942500 -0.937500
H -1.718900 -2.805500 1.998800
C -0.945900 1.102500 2.636200
C -1.785200 0.049500 2.284600
C -2.370800 0.001600 1.019400
C -2.123900 1.027500 0.111900
C -1.284600 2.088500 0.452200
C -0.706400 2.124600 1.717600
H -1.986500 -0.717800 3.013700
H -2.606400 0.994400 -0.850900
H -0.084500 2.964800 1.978900
C 2.934700 0.350800 2.557400
C 2.430100 1.598800 2.204300
C 2.640600 2.112700 0.924700
C 3.377200 1.374000 0.003500
C 3.888000 0.121700 0.344900
C 3.671100 -0.379900 1.624800
H 1.888900 2.166500 2.943200
H 3.559000 1.795400 -0.971400
H 4.096800 -1.334700 1.885900
C -0.681100 -0.708000 -2.483500
C 0.281700 -1.712500 -2.511100
C 1.639400 -1.393000 -2.531000
C 2.027700 -0.056600 -2.541300
C 1.072400 0.959500 -2.513900
C -0.279000 0.627700 -2.493800
H -0.042400 -2.739900 -2.533600
H 3.078500 0.176900 -2.587700
H -1.007300 1.421700 -2.503400
Zn 0.826700 -0.399000 5.029700
N 0.061000 -2.144900 3.885100
C -0.824800 -2.742300 4.594900
C -1.270500 -2.243300 5.867700
C -2.178600 -2.972400 6.646300
C -2.603800 -2.459500 7.855300
C -2.131800 -1.210500 8.274400
C -2.562800 -0.614300 9.552900
C -1.222600 -0.559300 7.422100
N -0.798100 -1.047900 6.269900
H -1.284900 -3.671700 4.255600
H -2.531500 -3.934000 6.306400
H -3.294100 -3.011600 8.475900
H -2.353700 -1.291900 10.382400
H -3.645900 -0.478500 9.563100
H -2.088000 0.342700 9.747000
H -0.830000 0.404900 7.713600
N 2.688300 -0.163900 3.836700
C 3.668300 -0.647200 4.508600
C 3.495600 -1.310600 5.772400
C 4.603100 -1.749800 6.509300
C 4.406500 -2.401900 7.710000
C 3.101500 -2.627200 8.162400
C 2.838000 -3.327900 9.433300
C 2.058700 -2.146100 7.351000
N 2.236200 -1.508200 6.207300
H 4.693100 -0.573000 4.141300
H 5.602000 -1.566800 6.144100
H 5.247400 -2.737700 8.298800
H 3.343100 -2.825800 10.260300
H 3.263500 -4.332900 9.408700
H 1.777900 -3.401600 9.656200
H 1.036300 -2.294600 7.669300
N -0.341100 1.119800 3.899700
C -0.393100 2.195800 4.596000
C 0.303400 2.351500 5.844300
C 0.150700 3.514100 6.610800
C 0.847000 3.644500 7.795600
C 1.707000 2.618000 8.202100
C 2.480600 2.713100 9.454400
C 1.789200 1.492300 7.363600
N 1.116300 1.351300 6.235000
H -0.979400 3.053800 4.263100
H -0.517200 4.294900 6.280800
H 0.733800 4.527600 8.406900
H 3.079300 1.827100 9.642400
H 1.816700 2.882800 10.303800
H 3.138400 3.583900 9.429700
H 2.437800 0.674900 7.646300
Zn -3.200700 -2.415700 -1.121100
N -1.448000 -3.624100 -0.476300
C -1.454600 -4.730800 -1.124700
C -2.410400 -5.023600 -2.158200
C -2.430700 -6.277600 -2.782400
C -3.346200 -6.523700 -3.785900
C -4.228300 -5.508800 -4.173400
C -5.218100 -5.717900 -5.246800
C -4.129100 -4.287100 -3.484300
N -3.266200 -4.045900 -2.512900
H -0.720700 -5.510500 -0.914600
H -1.742400 -7.047800 -2.469800
H -3.385800 -7.487700 -4.271300
H -5.854100 -6.575500 -5.020700
H -4.716600 -5.974800 -6.181800
H -5.843100 -4.845700 -5.412600
H -4.797700 -3.480200 -3.749800
N -3.191200 -1.072200 0.650300
C -4.123800 -1.442500 1.449400
C -4.932900 -2.608100 1.216600
C -5.995100 -2.927000 2.072500
C -6.743500 -4.062300 1.834900
C -6.416800 -4.884600 0.750600
C -7.179300 -6.113100 0.459300
C -5.334100 -4.477000 -0.048800
N -4.620500 -3.384800 0.161500
H -4.346000 -0.876900 2.355600
H -6.232100 -2.280500 2.903500
H -7.574000 -4.319000 2.475900
H -6.820600 -6.625200 -0.428400
H -8.239900 -5.886900 0.337500
H -7.130800 -6.800500 1.306000
H -5.054300 -5.082300 -0.899700
N -2.039700 -1.045700 -2.432600
C -2.850700 -0.472300 -3.244300
C -4.275400 -0.657500 -3.184400
C -5.115200 -0.076700 -4.143500
C -6.480800 -0.255200 -4.050000
C -7.003700 -1.000800 -2.987400
C -8.455700 -1.212500 -2.837300
C -6.077600 -1.542800 -2.078600
N -4.767900 -1.390100 -2.167200
H -2.485600 0.192300 -4.028900
H -4.693300 0.495000 -4.955800
H -7.144300 0.174100 -4.786100
H -8.872500 -1.667100 -3.737700
H -8.971200 -0.255400 -2.737600
H -8.699800 -1.832700 -1.980100
H -6.441800 -2.130400 -1.247500
Zn 4.414600 -2.746800 -1.270500
N 3.291900 -3.447200 0.516900
C 4.099100 -4.087200 1.281200
C 5.506700 -4.199300 1.009900
C 6.335200 -4.977600 1.828600
C 7.686500 -5.050900 1.556000
C 8.207900 -4.331800 0.474600
C 9.645700 -4.368800 0.147700
C 7.293600 -3.582100 -0.286400
N 5.996300 -3.516700 -0.042800
H 3.743700 -4.582300 2.186300
H 5.914700 -5.525100 2.658100
H 8.340000 -5.655100 2.167800
H 10.236600 -4.003400 0.989700
H 9.888200 -3.780300 -0.732000
H 9.977800 -5.396800 -0.007400
H 7.656400 -3.017800 -1.134200
N 2.612200 -2.401100 -2.527100
C 2.499400 -3.373800 -3.355600
C 3.373400 -4.515500 -3.341700
C 3.264500 -5.514400 -4.317700
C 4.103400 -6.609600 -4.267500
C 5.038300 -6.710200 -3.231000
C 5.950000 -7.865000 -3.126500
C 5.069800 -5.654600 -2.302700
N 4.281100 -4.595200 -2.349900
H 1.720500 -3.374700 -4.119800
H 2.537200 -5.419200 -5.109400
H 4.043400 -7.384500 -5.017300
H 5.380700 -8.791100 -3.027800
H 6.632400 -7.782100 -2.286000
H 6.527100 -7.983000 -4.045200
H 5.782900 -5.691900 -1.491000
N 4.603200 -0.638700 -0.589200
C 5.547100 -0.077600 -1.252200
C 6.251000 -0.738200 -2.317800
C 7.330100 -0.116100 -2.958800
C 7.975100 -0.766400 -3.991600
C 7.528200 -2.031000 -4.391000
C 8.177200 -2.763200 -5.494800
C 6.438800 -2.569500 -3.683700
N 5.823500 -1.961600 -2.684500
H 5.860900 0.943700 -1.030000
H 7.660500 0.859500 -2.636600
H 8.816700 -0.308900 -4.490600
H 7.731400 -3.738300 -5.666600
H 9.243500 -2.887300 -5.298400
H 8.124000 -2.184000 -6.418600
H 6.067900 -3.547200 -3.958100
Zn 0.891800 4.012400 -1.185800
N -1.009000 3.107200 -0.469000
C -1.984700 3.657900 -1.093600
C -1.794000 4.619200 -2.145700
C -2.889500 5.256400 -2.742700
C -2.677400 6.160200 -3.764300
C -1.370600 6.411700 -4.197200
C -1.091600 7.360200 -5.291700
C -0.340400 5.722900 -3.532600
N -0.531500 4.867000 -2.544000
H -3.019500 3.414600 -0.847200
H -3.890000 5.049500 -2.395300
H -3.507600 6.671000 -4.229300
H -1.512400 8.341500 -5.066000
H -1.591300 7.040800 -6.208200
H -0.029400 7.465900 -5.490600
H 0.683600 5.894900 -3.833400
N 2.108200 3.354900 0.555900
C 2.279500 4.358000 1.336600
C 1.665700 5.638100 1.108000
C 1.947500 6.727900 1.941900
C 1.328400 7.939900 1.710500
C 0.416500 8.053600 0.655100
C -0.278600 9.323500 0.372400
C 0.203800 6.902600 -0.124200
N 0.801800 5.741900 0.080000
H 2.910400 4.279600 2.223500
H 2.653800 6.620800 2.750800
H 1.541300 8.795300 2.334400
H -0.869400 9.634000 1.236300
H -0.931400 9.257300 -0.492700
H 0.441200 10.128700 0.216400
H -0.488500 6.951800 -0.953000
N 1.459400 2.305700 -2.493100
C 2.335500 2.711300 -3.337700
C 2.886700 4.039100 -3.312500
C 3.778900 4.464500 -4.305200
C 4.306900 5.738600 -4.245200
C 3.953200 6.578100 -3.182900
C 4.496700 7.944500 -3.068000
C 3.050300 6.057800 -2.238900
N 2.528100 4.845100 -2.294800
H 2.705000 2.052800 -4.125300
H 4.039600 3.802800 -5.117000
H 4.986800 6.089700 -5.007300
H 4.106400 8.476800 -2.205900
H 4.282800 8.519900 -3.970300
H 5.585900 7.916100 -3.000800
H 2.747600 6.677700 -1.406600
